#------------------------------------------------------------------------------
#$Date: 2018-01-13 01:00:55 +0000 (Sat, 13 Jan 2018) $
#$Revision: 205139 $
#$URL: svn://www.crystallography.net/cod/cif/1/01/09/1010928.cif $
#------------------------------------------------------------------------------
#
# This file is available in the Crystallography Open Database (COD),
# http://www.crystallography.net/
#
# All data on this site have been placed in the public domain by the
# contributors.
#
data_1010928
loop_
_publ_author_name
'Elliott, N'
_publ_section_title
;
A Redetermination of the Carbon - Oxygen Distance in Calcite and the
Nitrogen - Oxygen Distance in Sodium Nitrate
;
_journal_coden_ASTM              JACSAT
_journal_name_full               'Journal of the American Chemical Society'
_journal_page_first              1380
_journal_page_last               1382
_journal_paper_doi               10.1021/ja01286a065
_journal_volume                  59
_journal_year                    1937
_chemical_formula_structural     'Ca C O3'
_chemical_formula_sum            'C Ca O3'
_chemical_name_mineral           Calcite
_chemical_name_systematic        'Calcium carbonate'
_symmetry_cell_setting           trigonal
_symmetry_Int_Tables_number      167
_symmetry_space_group_name_Hall  '-P 3* 2n'
_symmetry_space_group_name_H-M   'R -3 c RS'
_cell_angle_alpha                46.1
_cell_angle_beta                 46.1
_cell_angle_gamma                46.1
_cell_formula_units_Z            2
_cell_length_a                   6.36
_cell_length_b                   6.36
_cell_length_c                   6.36
_cell_volume                     121.9
_cod_original_formula_sum        'Ca C O3'
_cod_database_code               1010928
loop_
_symmetry_equiv_pos_as_xyz
x,y,z
z,x,y
y,z,x
-y,-x,-z
-x,-z,-y
-z,-y,-x
1/2-x,1/2-y,1/2-z
1/2-y,1/2-z,1/2-x
1/2-z,1/2-x,1/2-y
1/2+y,1/2+x,1/2+z
1/2+x,1/2+z,1/2+y
1/2+z,1/2+y,1/2+x
loop_
_atom_site_label
_atom_site_type_symbol
_atom_site_symmetry_multiplicity
_atom_site_Wyckoff_symbol
_atom_site_fract_x
_atom_site_fract_y
_atom_site_fract_z
_atom_site_occupancy
_atom_site_attached_hydrogens
_atom_site_calc_flag
Ca1 Ca2+ 2 b 0.25 0.25 0.25 1. 0 d
C1 C4+ 2 a 0. 0. 0. 1. 0 d
O1 O2- 6 e 0.2635(11) -0.26351 0. 1. 0 d
loop_
_atom_type_symbol
_atom_type_oxidation_number
Ca2+ 2.000
C4+ 4.000
O2- -2.000
loop_
_cod_related_entry_id
_cod_related_entry_database
_cod_related_entry_code
1 ChemSpider 9708

#------------------------------------------------------------------------------
#$Date: 2018-01-13 01:00:55 +0000 (Sat, 13 Jan 2018) $
#$Revision: 205139 $
#$URL: svn://www.crystallography.net/cod/cif/1/01/09/1010962.cif $
#------------------------------------------------------------------------------
#
# This file is available in the Crystallography Open Database (COD),
# http://www.crystallography.net/
#
# All data on this site have been placed in the public domain by the
# contributors.
#
data_1010962
loop_
_publ_author_name
'Wyckoff, R W G'
_publ_section_title
;
The Crystal Structures of some Carbonates of the Calcite Group
;
_journal_coden_ASTM              AJSC4K
_journal_name_full               'American Journal of Science, Serie 4(-1920)'
_journal_page_first              317
_journal_page_last               360
_journal_volume                  50
_journal_year                    1920
_chemical_compound_source        'from Iceland'
_chemical_formula_structural     'Ca C O3'
_chemical_formula_sum            'C Ca O3'
_chemical_name_mineral           Calcite
_chemical_name_systematic        'Calcium carbonate'
_symmetry_cell_setting           trigonal
_symmetry_Int_Tables_number      167
_symmetry_space_group_name_Hall  '-P 3* 2n'
_symmetry_space_group_name_H-M   'R -3 c RS'
_cell_angle_alpha                46.1
_cell_angle_beta                 46.1
_cell_angle_gamma                46.1
_cell_formula_units_Z            2
_cell_length_a                   6.36
_cell_length_b                   6.36
_cell_length_c                   6.36
_cell_volume                     121.9
_exptl_crystal_density_meas      2.73
_cod_original_formula_sum        'Ca C O3'
_cod_database_code               1010962
loop_
_symmetry_equiv_pos_as_xyz
x,y,z
z,x,y
y,z,x
-y,-x,-z
-x,-z,-y
-z,-y,-x
1/2-x,1/2-y,1/2-z
1/2-y,1/2-z,1/2-x
1/2-z,1/2-x,1/2-y
1/2+y,1/2+x,1/2+z
1/2+x,1/2+z,1/2+y
1/2+z,1/2+y,1/2+x
loop_
_atom_site_label
_atom_site_type_symbol
_atom_site_symmetry_multiplicity
_atom_site_Wyckoff_symbol
_atom_site_fract_x
_atom_site_fract_y
_atom_site_fract_z
_atom_site_occupancy
_atom_site_attached_hydrogens
_atom_site_calc_flag
Ca1 Ca2+ 2 b 0.25 0.25 0.25 1. 0 d
C1 C4+ 2 a 0. 0. 0. 1. 0 d
O1 O2- 6 e 0.25(1) -0.25 0. 1. 0 d
loop_
_atom_type_symbol
_atom_type_oxidation_number
Ca2+ 2.000
C4+ 4.000
O2- -2.000
loop_
_cod_related_entry_id
_cod_related_entry_database
_cod_related_entry_code
1 ChemSpider 9708

#------------------------------------------------------------------------------
#$Date: 2016-02-14 14:26:36 +0000 (Sun, 14 Feb 2016) $
#$Revision: 176435 $
#$URL: svn://www.crystallography.net/cod/cif/1/50/89/1508970.cif $
#------------------------------------------------------------------------------
#
# This file is available in the Crystallography Open Database (COD),
# http://www.crystallography.net/
#
# All data on this site have been placed in the public domain by the
# contributors.
#
data_1508970
loop_
_publ_author_name
'Mugnaioli, E.'
'Andrusenko, I.'
'Sch\"uler, T.'
'Loges, N.'
'Panth\"ofer, M.'
'Dinnebier, R. E.'
'Tremel, W.'
'Kolb, U.'
_publ_contact_author_address
;
Institut f\"ur Physikalische Chemie
Welderweg 11
Johannes Gutenberg Universit\"at
D-55099 Mainz, Germany
;
_publ_contact_author_email       kolb@uni-mainz.de
_publ_contact_author_name        'Dr. Ute Kolb'
_publ_contact_author_phone       49(6131)3924154
_publ_section_title
;
 Ab Initio Structure Determination of Vaterite by Automated Electron
 Diffraction
;
_journal_issue                   28
_journal_name_full               'Angewandte Chemie International Edition'
_journal_page_first              7041
_journal_page_last               7045
_journal_paper_doi               10.1002/anie.201200845
_journal_volume                  51
_journal_year                    2012
_chemical_formula_sum            'C1.5 Ca1.5 O4.5'
_chemical_formula_weight         150.13
_chemical_name_mineral           Vaterite
_space_group_IT_number           15
_symmetry_cell_setting           monoclinic
_symmetry_Int_Tables_number      15
_symmetry_space_group_name_Hall  '-C 2yc'
_symmetry_space_group_name_H-M   'C 1 2/c 1'
_atom_sites_solution_hydrogens   geom
_atom_sites_solution_primary     direct
_atom_sites_solution_secondary   difmap
_atom_type_scat_source
'P.A. Doyle, P.S. Turner, Acta Crystallogr. A 1968, 24, 390-397'
_cell_angle_alpha                90.00
_cell_angle_beta                 118.37
_cell_angle_gamma                90.00
_cell_formula_units_Z            8
_cell_length_a                   12.170
_cell_length_b                   7.120
_cell_length_c                   9.470
_cell_volume                     722.026
_computing_cell_refinement       ADT3D
_computing_data_collection       'ADT module'
_computing_data_reduction        'own developed routines'
_computing_molecular_graphics    'Materials Studio'
_computing_structure_refinement  'SHELXL-97 (Sheldrick, 1997)'
_computing_structure_solution    Sir2008
_diffrn_ambient_temperature      295(2)
_diffrn_detector                 '14-bit CCD GATAN 794MSC, 1024x1024 pixels'
_diffrn_measured_fraction_theta_full 0.813
_diffrn_measured_fraction_theta_max 0.813
_diffrn_measurement_device_type  'FEI Tecnai F30 ST'
_diffrn_radiation_monochromator  not
_diffrn_radiation_probe          electron
_diffrn_radiation_type           electrons
_diffrn_radiation_wavelength     0.01970
_diffrn_reflns_av_R_equivalents  0.2112
_diffrn_reflns_av_sigmaI/netI    0.1273
_diffrn_reflns_limit_h_max       12
_diffrn_reflns_limit_h_min       -11
_diffrn_reflns_limit_k_max       7
_diffrn_reflns_limit_k_min       -7
_diffrn_reflns_limit_l_max       10
_diffrn_reflns_limit_l_min       -10
_diffrn_reflns_number            1176
_diffrn_reflns_theta_full        0.63
_diffrn_reflns_theta_max         0.63
_diffrn_reflns_theta_min         0.10
_exptl_absorpt_coefficient_mu    0.014
_exptl_crystal_density_diffrn    2.762
_exptl_crystal_density_method    'not measured'
_exptl_crystal_description       nanocrystal
_exptl_crystal_F_000             220
_exptl_crystal_size_mid          0.00004
_exptl_crystal_size_min          0.00003
_refine_diff_density_max         1.170
_refine_diff_density_min         -0.423
_refine_diff_density_rms         0.173
_refine_ls_extinction_method     none
_refine_ls_goodness_of_fit_ref   3.715
_refine_ls_hydrogen_treatment    mixed
_refine_ls_matrix_type           full
_refine_ls_number_parameters     30
_refine_ls_number_reflns         427
_refine_ls_number_restraints     13
_refine_ls_restrained_S_all      3.689
_refine_ls_R_factor_all          0.3870
_refine_ls_R_factor_gt           0.3761
_refine_ls_shift/su_max          0.006
_refine_ls_shift/su_mean         0.002
_refine_ls_structure_factor_coef Fsqd
_refine_ls_weighting_details
'calc w=1/[\s^2^(Fo^2^)+(0.1000P)^2^+0.0000P] where P=(Fo^2^+2Fc^2^)/3'
_refine_ls_weighting_scheme      calc
_refine_ls_wR_factor_gt          0.6852
_refine_ls_wR_factor_ref         0.7024
_reflns_number_gt                314
_reflns_number_total             427
_reflns_threshold_expression     >2sigma(I)
_cod_data_source_file            CaCO3_vaterite_C2_c_DC236.cif
_cod_data_source_block           vaterite_ref_good3_chateigner_2310010
_cod_original_cell_volume        722.0
_cod_original_sg_symbol_H-M      C2/c
_cod_original_formula_sum        'C1.50 Ca1.50 O4.50'
_cod_database_code               1508970
loop_
_symmetry_equiv_pos_as_xyz
'x, y, z'
'-x, y, -z+1/2'
'x+1/2, y+1/2, z'
'-x+1/2, y+1/2, -z+1/2'
'-x, -y, -z'
'x, -y, z-1/2'
'-x+1/2, -y+1/2, -z'
'x+1/2, -y+1/2, z-1/2'
loop_
_atom_site_label
_atom_site_type_symbol
_atom_site_fract_x
_atom_site_fract_y
_atom_site_fract_z
_atom_site_U_iso_or_equiv
_atom_site_adp_type
_atom_site_occupancy
_atom_site_symmetry_multiplicity
_atom_site_calc_flag
_atom_site_refinement_flags
Ca1 Ca 0.2500 0.2500 0.0000 0.051(5) Uiso 1 2 d S
Ca2 Ca 0.0793(9) 0.2631(13) 0.5033(10) 0.036(4) Uiso 1 1 d .
C1 C 0.1837(19) 0.392(3) 0.262(2) 0.048(8) Uiso 1 1 d D
C2 C 0.0000 0.947(4) 0.2500 0.046(10) Uiso 1 2 d SD
O1 O 0.092(2) 0.434(5) 0.132(3) 0.094(11) Uiso 1 1 d D
O2 O 0.200(3) 0.443(5) 0.399(3) 0.101(12) Uiso 1 1 d D
O3 O 0.057(4) 0.859(4) 0.3831(12) 0.101(12) Uiso 1 1 d D
O4 O 0.274(2) 0.292(4) 0.265(3) 0.069(9) Uiso 1 1 d D
O5 O 0.0000 0.129(4) 0.2500 0.071(12) Uiso 1 2 d S
loop_
_geom_angle_atom_site_label_1
_geom_angle_atom_site_label_2
_geom_angle_atom_site_label_3
_geom_angle
_geom_angle_site_symmetry_1
_geom_angle_site_symmetry_3
O4 Ca1 O4 180.000(2) . 7
O4 Ca1 O3 98.0(10) . 6_565
O4 Ca1 O3 82.0(10) 7 6_565
O4 Ca1 O3 82.0(10) . 4_545
O4 Ca1 O3 98.0(10) 7 4_545
O3 Ca1 O3 180.0(12) 6_565 4_545
O4 Ca1 O2 79.0(10) . 4_545
O4 Ca1 O2 101.0(10) 7 4_545
O3 Ca1 O2 83.4(11) 6_565 4_545
O3 Ca1 O2 96.6(11) 4_545 4_545
O4 Ca1 O2 101.0(10) . 6_565
O4 Ca1 O2 79.0(10) 7 6_565
O3 Ca1 O2 96.6(11) 6_565 6_565
O3 Ca1 O2 83.4(11) 4_545 6_565
O2 Ca1 O2 180.000(1) 4_545 6_565
O4 Ca2 O5 136.9(10) 7_556 .
O4 Ca2 O1 143.2(12) 7_556 2
O5 Ca2 O1 79.3(9) . 2
O4 Ca2 O3 84.0(10) 7_556 5_566
O5 Ca2 O3 105.3(5) . 5_566
O1 Ca2 O3 78.7(11) 2 5_566
O4 Ca2 O1 79.8(10) 7_556 6_566
O5 Ca2 O1 140.6(10) . 6_566
O1 Ca2 O1 68.0(8) 2 6_566
O3 Ca2 O1 89.5(9) 5_566 6_566
O4 Ca2 O2 98.1(11) 7_556 .
O5 Ca2 O2 80.5(7) . .
O1 Ca2 O2 93.5(11) 2 .
O3 Ca2 O2 169.0(11) 5_566 .
O1 Ca2 O2 80.3(10) 6_566 .
O1 C1 O2 126(2) . .
O1 C1 O4 119.8(19) . .
O2 C1 O4 115(3) . .
O3 C2 O3 121(2) 2 .
O3 C2 O5 119.4(10) 2 1_565
O3 C2 O5 119.4(10) . 1_565
C1 O1 Ca2 127(2) . 2
C1 O1 Ca2 121(2) . 6_565
Ca2 O1 Ca2 112.0(8) 2 6_565
C1 O2 Ca1 125(2) . 4
C1 O2 Ca2 115(2) . .
Ca1 O2 Ca2 113.9(11) 4 .
C2 O3 Ca1 128(3) . 4
C2 O3 Ca2 116(2) . 5_566
Ca1 O3 Ca2 115.1(8) 4 5_566
C1 O4 Ca1 111.5(17) . .
C1 O4 Ca2 114(2) . 7_556
Ca1 O4 Ca2 133.4(12) . 7_556
C2 O5 Ca2 114.3(7) 1_545 .
C2 O5 Ca2 114.3(7) 1_545 2
Ca2 O5 Ca2 131.5(14) . 2
loop_
_geom_bond_atom_site_label_1
_geom_bond_atom_site_label_2
_geom_bond_distance
_geom_bond_site_symmetry_2
Ca1 O4 2.40(3) .
Ca1 O4 2.40(3) 7
Ca1 O3 2.21(4) 6_565
Ca1 O3 2.21(4) 4_545
Ca1 O2 2.35(4) 4_545
Ca1 O2 2.35(4) 6_565
Ca2 O4 2.11(3) 7_556
Ca2 O5 2.323(14) .
Ca2 O1 2.22(3) 2
Ca2 O3 2.52(4) 5_566
Ca2 O1 2.45(4) 6_566
Ca2 O2 2.48(4) .
C1 O1 1.242(16) .
C1 O2 1.263(18) .
C1 O4 1.301(18) .
C2 O3 1.278(11) 2
C2 O3 1.278(11) .
C2 O5 1.297(17) 1_565
O1 Ca2 2.22(3) 2
O1 Ca2 2.45(4) 6_565
O2 Ca1 2.35(4) 4
O3 Ca1 2.21(4) 4
O3 Ca2 2.52(4) 5_566
O4 Ca2 2.11(3) 7_556
O5 C2 1.297(17) 1_545
O5 Ca2 2.323(14) 2

#------------------------------------------------------------------------------
#$Date: 2016-02-14 14:26:36 +0000 (Sun, 14 Feb 2016) $
#$Revision: 176435 $
#$URL: svn://www.crystallography.net/cod/cif/1/50/89/1508971.cif $
#------------------------------------------------------------------------------
#
# This file is available in the Crystallography Open Database (COD),
# http://www.crystallography.net/
#
# All data on this site have been placed in the public domain by the
# contributors.
#
data_1508971
loop_
_publ_author_name
'Mugnaioli, E.'
'Andrusenko, I.'
'Sch\"uler, T.'
'Loges, N.'
'Panth\"ofer, M.'
'Dinnebier, R. E.'
'Tremel, W.'
'Kolb, U.'
_publ_contact_author_address
;
Institut f\"ur Physikalische Chemie
Welderweg 11
Johannes Gutenberg Universit\"at
D-55099 Mainz, Germany
;
_publ_contact_author_email       kolb@uni-mainz.de
_publ_contact_author_name        'Dr. Ute Kolb'
_publ_contact_author_phone       49(6131)3924154
_publ_section_title
;
 Ab Initio Structure Determination of Vaterite by Automated Electron
 Diffraction
;
_journal_issue                   28
_journal_name_full               'Angewandte Chemie International Edition'
_journal_page_first              7041
_journal_page_last               7045
_journal_paper_doi               10.1002/anie.201200845
_journal_volume                  51
_journal_year                    2012
_chemical_formula_sum            'C9 Ca9 O27'
_chemical_formula_weight         1334.24
_chemical_name_mineral           Vaterite
_space_group_IT_number           2
_symmetry_space_group_name_Hall  '-P 1 (1/2*x+1/2*y,1/2*x-1/2*y,-z)'
_symmetry_space_group_name_H-M   'C -1'
_atom_sites_solution_hydrogens   geom
_atom_sites_solution_primary     direct
_atom_sites_solution_secondary   difmap
_atom_type_scat_source
'P.A. Doyle, P.S. Turner, Acta Crystallogr. A 1968, 24, 390-397'
_audit_creation_date             2012-01-04
_audit_creation_method           SHELXL-97
_cell_angle_alpha                90.00
_cell_angle_beta                 99.22
_cell_angle_gamma                90.00
_cell_formula_units_Z            4
_cell_length_a                   12.170
_cell_length_b                   7.120
_cell_length_c                   25.320
_cell_measurement_temperature    295(2)
_cell_volume                     2165.643
_computing_cell_refinement       ADT3D
_computing_data_collection       'ADT module'
_computing_data_reduction        'own developed routines'
_computing_molecular_graphics    'Materials Studio'
_computing_structure_refinement  'SHELXL-97 (Sheldrick, 1997)'
_computing_structure_solution    Sir2008
_diffrn_ambient_temperature      295(2)
_diffrn_detector                 '14-bit CCD GATAN 794MSC, 1024x1024 pixels'
_diffrn_measured_fraction_theta_full 0.599
_diffrn_measured_fraction_theta_max 0.599
_diffrn_measurement_device_type  'FEI Tecnai F30 ST'
_diffrn_radiation_monochromator  not
_diffrn_radiation_probe          electron
_diffrn_radiation_type           electrons
_diffrn_radiation_wavelength     0.01970
_diffrn_reflns_av_R_equivalents  0.1633
_diffrn_reflns_av_sigmaI/netI    0.1536
_diffrn_reflns_limit_h_max       12
_diffrn_reflns_limit_h_min       -12
_diffrn_reflns_limit_k_max       7
_diffrn_reflns_limit_k_min       -7
_diffrn_reflns_limit_l_max       28
_diffrn_reflns_limit_l_min       -28
_diffrn_reflns_number            3001
_diffrn_reflns_theta_full        0.63
_diffrn_reflns_theta_max         0.63
_diffrn_reflns_theta_min         0.07
_exptl_absorpt_coefficient_mu    0.016
_exptl_crystal_density_diffrn    4.092
_exptl_crystal_density_method    'not measured'
_exptl_crystal_description       nanocrystal
_exptl_crystal_F_000             1230
_exptl_crystal_size_mid          0.00004
_refine_diff_density_max         1.235
_refine_diff_density_min         -0.528
_refine_diff_density_rms         0.182
_refine_ls_extinction_method     none
_refine_ls_goodness_of_fit_ref   4.991
_refine_ls_hydrogen_treatment    mixed
_refine_ls_matrix_type           full
_refine_ls_number_parameters     179
_refine_ls_number_reflns         1876
_refine_ls_number_restraints     100
_refine_ls_restrained_S_all      4.857
_refine_ls_R_factor_all          0.4676
_refine_ls_R_factor_gt           0.4558
_refine_ls_shift/su_max          0.438
_refine_ls_shift/su_mean         0.134
_refine_ls_structure_factor_coef Fsqd
_refine_ls_weighting_details
'calc w=1/[\s^2^(Fo^2^)+(0.1000P)^2^+0.0000P] where P=(Fo^2^+2Fc^2^)/3'
_refine_ls_weighting_scheme      calc
_refine_ls_wR_factor_gt          0.8028
_refine_ls_wR_factor_ref         0.8102
_reflns_number_gt                1421
_reflns_number_total             1876
_reflns_threshold_expression     >2sigma(I)
_cod_data_source_file            CaCO3_vaterite_C_1_DC237.cif
_cod_data_source_block           vaterite3_good_clean_ref_cell
_cod_original_cell_volume        2165.6
_cod_original_sg_symbol_H-M      C-1
_cod_original_formula_sum        'C9 O27 Ca9'
_cod_database_code               1508971
loop_
_symmetry_equiv_pos_as_xyz
'x, y, z'
'x+1/2, y+1/2, z'
'-x, -y, -z'
'-x+1/2, -y+1/2, -z'
loop_
_atom_site_label
_atom_site_type_symbol
_atom_site_fract_x
_atom_site_fract_y
_atom_site_fract_z
_atom_site_U_iso_or_equiv
_atom_site_adp_type
_atom_site_occupancy
_atom_site_symmetry_multiplicity
_atom_site_calc_flag
_atom_site_refinement_flags
Ca1 Ca 0.9157(14) 0.278(2) 0.4976(6) 0.041(4) Uiso 1 1 d .
Ca2 Ca 1.1299(11) -0.2548(15) 0.6664(4) 0.027(4) Uiso 1 1 d .
Ca3 Ca 0.8117(13) -0.2524(19) 0.6681(5) 0.037(4) Uiso 1 1 d .
Ca4 Ca 0.8609(14) -0.2477(19) 0.8336(5) 0.046(5) Uiso 1 1 d .
Ca5 Ca 0.9709(12) 0.2345(16) 0.6668(5) 0.033(4) Uiso 1 1 d .
Ca6 Ca 1.1861(15) -0.233(2) 0.8319(6) 0.047(5) Uiso 1 1 d .
Ca7 Ca 1.0310(15) 0.216(2) 0.8326(6) 0.047(5) Uiso 1 1 d .
Ca8 Ca 0.5865(15) -0.258(2) 1.0004(6) 0.049(5) Uiso 1 1 d .
Ca9 Ca 0.7500 0.7500 0.5000 0.056(7) Uiso 1 2 d S
Ca10 Ca 1.2500 -0.2500 1.0000 0.067(7) Uiso 1 2 d S
C1 C 1.183(2) 0.086(3) 0.7500(9) 0.023(8) Uiso 1 1 d D
C2 C 0.995(2) -0.459(4) 0.7533(9) 0.049(11) Uiso 1 1 d D
C3 C 0.756(2) 0.393(3) 0.5859(9) 0.030(8) Uiso 1 1 d D
C4 C 0.807(2) 0.097(3) 0.7485(10) 0.093(18) Uiso 1 1 d D
C5 C 0.939(3) 0.963(4) 0.5783(10) 0.078(15) Uiso 1 1 d D
C6 C 0.729(5) -0.043(5) 0.9147(13) 0.12(2) Uiso 1 1 d D
C7 C 1.024(3) -0.115(4) 0.9187(11) 0.20(4) Uiso 1 1 d D
C8 C 1.140(2) 0.394(3) 0.5866(8) 0.041(9) Uiso 1 1 d D
C9 C 0.588(3) 0.095(4) 0.0840(12) 0.17(4) Uiso 1 1 d D
O1 O 0.791(3) 0.444(6) 0.5428(12) 0.072(11) Uiso 1 1 d D
O2 O 1.056(3) -0.068(6) 0.8749(11) 0.073(12) Uiso 1 1 d D
O3 O 0.839(3) 0.065(5) 0.7034(9) 0.058(10) Uiso 1 1 d D
O4 O 0.732(2) -0.192(4) 0.5855(11) 0.049(8) Uiso 1 1 d .
O5 O 1.001(3) 0.617(4) 0.7991(8) 0.031(7) Uiso 1 1 d .
O6 O 0.932(5) 0.143(3) 0.5829(14) 0.082(13) Uiso 1 1 d .
O7 O 1.078(2) 0.440(4) 0.5430(9) 0.034(7) Uiso 1 1 d D
O8 O 0.952(4) -0.140(4) 0.6200(10) 0.059(10) Uiso 1 1 d .
O9 O 1.109(3) 0.432(6) 0.6317(9) 0.089(14) Uiso 1 1 d D
O10 O 1.362(5) -0.041(9) 0.8703(14) 0.14(2) Uiso 1 1 d .
O11 O 0.930(4) 0.890(4) 0.5316(10) 0.067(11) Uiso 1 1 d D
O12 O 0.725(4) -0.096(5) 0.8661(11) 0.054(9) Uiso 1 1 d D
O13 O 1.127(3) 0.041(6) 0.7049(10) 0.070(12) Uiso 1 1 d D
O14 O 0.866(2) 0.045(3) 0.7918(8) 0.028(6) Uiso 1 1 d D
O15 O 0.731(4) -0.164(6) 0.9522(12) 0.076(13) Uiso 1 1 d D
O16 O 1.274(3) 0.181(6) 0.7510(14) 0.085(13) Uiso 1 1 d D
O17 O 0.809(4) 0.435(7) 0.6317(12) 0.107(18) Uiso 1 1 d D
O18 O 1.084(3) -0.076(5) 0.9637(11) 0.060(10) Uiso 1 1 d D
O19 O 0.666(2) 0.297(4) 0.5825(10) 0.038(8) Uiso 1 1 d D
O20 O 1.003(3) 0.311(5) 0.9192(13) 0.060(10) Uiso 1 1 d .
O21 O 0.993(4) 0.362(3) 0.7476(13) 0.084(13) Uiso 1 1 d .
O22 O 0.931(3) -0.200(5) 0.9177(12) 0.055(10) Uiso 1 1 d D
O23 O 0.988(4) -0.355(5) 0.7111(10) 0.082(13) Uiso 1 1 d D
O24 O 0.714(2) 0.182(5) 0.7489(12) 0.054(9) Uiso 1 1 d D
O25 O 0.373(3) -0.054(6) 0.9586(14) 0.081(14) Uiso 1 1 d .
O26 O 0.651(3) 0.543(5) 0.7942(10) 0.052(9) Uiso 1 1 d .
O27 O 0.731(13) 0.134(5) 0.926(2) 0.33(8) Uiso 1 1 d D
loop_
_geom_angle_atom_site_label_1
_geom_angle_atom_site_label_2
_geom_angle_atom_site_label_3
_geom_angle
_geom_angle_site_symmetry_1
_geom_angle_site_symmetry_3
O19 Ca1 O7 80.7(10) 4_656 3_766
O19 Ca1 O1 110.0(12) 4_656 .
O7 Ca1 O1 81.1(12) 3_766 .
O19 Ca1 O6 136.0(13) 4_656 .
O7 Ca1 O6 141.0(11) 3_766 .
O1 Ca1 O6 74.1(15) . .
O19 Ca1 O7 140.9(12) 4_656 .
O7 Ca1 O7 73.0(9) 3_766 .
O1 Ca1 O7 94.1(11) . .
O6 Ca1 O7 79.2(14) . .
O24 Ca2 O13 79.9(11) 2_545 .
O24 Ca2 O23 75.3(13) 2_545 .
O13 Ca2 O23 90.7(14) . .
O24 Ca2 O9 99.3(11) 2_545 1_545
O13 Ca2 O9 171.9(15) . 1_545
O23 Ca2 O9 81.3(13) . 1_545
O24 Ca2 O19 141.8(12) 2_545 2_545
O13 Ca2 O19 105.3(12) . 2_545
O23 Ca2 O19 140.8(11) . 2_545
O9 Ca2 O19 80.4(10) 1_545 2_545
O24 Ca2 O3 49.6(6) 2_545 2_545
O13 Ca2 O3 109.9(11) . 2_545
O23 Ca2 O3 113.2(12) . 2_545
O9 Ca2 O3 74.9(11) 1_545 2_545
O19 Ca2 O3 94.8(10) 2_545 2_545
O24 Ca2 O8 139.7(13) 2_545 .
O13 Ca2 O8 80.0(12) . .
O23 Ca2 O8 70.4(13) . .
O9 Ca2 O8 95.9(12) 1_545 .
O19 Ca2 O8 77.4(11) 2_545 .
O3 Ca2 O8 169.0(11) 2_545 .
O23 Ca3 O16 79.1(14) . 2_445
O23 Ca3 O8 70.6(12) . .
O16 Ca3 O8 143.9(11) 2_445 .
O23 Ca3 O4 136.8(13) . .
O16 Ca3 O4 142.7(14) 2_445 .
O8 Ca3 O4 72.2(12) . .
O23 Ca3 O3 93.3(12) . .
O16 Ca3 O3 83.7(12) 2_445 .
O8 Ca3 O3 79.0(11) . .
O4 Ca3 O3 100.5(11) . .
O23 Ca3 O17 81.0(14) . 1_545
O16 Ca3 O17 99.7(15) 2_445 1_545
O8 Ca3 O17 94.5(14) . 1_545
O4 Ca3 O17 80.8(12) . 1_545
O3 Ca3 O17 172.5(15) . 1_545
O23 Ca3 O13 112.3(12) . 2_445
O16 Ca3 O13 47.8(8) 2_445 2_445
O8 Ca3 O13 165.5(10) . 2_445
O4 Ca3 O13 98.8(11) . 2_445
O3 Ca3 O13 114.4(12) . 2_445
O17 Ca3 O13 72.4(14) 1_545 2_445
O22 Ca4 O16 173.1(14) . 2_445
O22 Ca4 O14 105.4(11) . .
O16 Ca4 O14 79.9(12) 2_445 .
O22 Ca4 O12 76.2(13) . .
O16 Ca4 O12 100.8(15) 2_445 .
O14 Ca4 O12 79.3(12) . .
O22 Ca4 O5 104.0(13) . 1_545
O16 Ca4 O5 79.4(13) 2_445 1_545
O14 Ca4 O5 97.4(11) . 1_545
O12 Ca4 O5 176.5(13) . 1_545
O22 Ca4 O26 125.5(11) . 1_545
O16 Ca4 O26 47.7(6) 2_445 1_545
O14 Ca4 O26 112.2(10) . 1_545
O12 Ca4 O26 73.8(13) . 1_545
O5 Ca4 O26 108.5(10) 1_545 1_545
O22 Ca4 O2 51.8(6) . .
O16 Ca4 O2 135.0(11) 2_445 .
O14 Ca4 O2 70.9(11) . .
O12 Ca4 O2 106.2(13) . .
O5 Ca4 O2 71.6(12) 1_545 .
O26 Ca4 O2 176.7(10) 1_545 .
O22 Ca4 O10 76.8(15) . 2_445
O16 Ca4 O10 98.2(15) 2_445 2_445
O14 Ca4 O10 176.4(15) . 2_445
O12 Ca4 O10 104.2(18) . 2_445
O5 Ca4 O10 79.2(16) 1_545 2_445
O26 Ca4 O10 68.1(14) 1_545 2_445
O2 Ca4 O10 108.9(17) . 2_445
O21 Ca5 O9 96.4(15) . .
O21 Ca5 O17 93.9(15) . .
O9 Ca5 O17 95.2(14) . .
O21 Ca5 O6 171.6(14) . .
O9 Ca5 O6 82.7(16) . .
O17 Ca5 O6 77.9(15) . .
O21 Ca5 O3 80.4(15) . .
O9 Ca5 O3 176.4(11) . .
O17 Ca5 O3 83.4(14) . .
O6 Ca5 O3 100.3(16) . .
O26 Ca6 O2 70.1(12) 2_545 .
O26 Ca6 O5 98.0(12) 2_545 1_545
O2 Ca6 O5 74.6(11) . 1_545
O26 Ca6 O24 83.3(12) 2_545 2_545
O2 Ca6 O24 140.3(12) . 2_545
O5 Ca6 O24 80.6(11) 1_545 2_545
O26 Ca6 O10 77.4(13) 2_545 .
O2 Ca6 O10 97.9(15) . .
O5 Ca6 O10 172.3(15) 1_545 .
O24 Ca6 O10 104.7(15) 2_545 .
O20 Ca7 O14 107.7(13) . .
O20 Ca7 O21 132.9(13) . .
O14 Ca7 O21 78.8(12) . .
O20 Ca7 O26 139.0(12) . 2_545
O14 Ca7 O26 95.2(11) . 2_545
O21 Ca7 O26 83.8(14) . 2_545
O20 Ca7 O10 47.6(8) . 2_455
O14 Ca7 O10 82.0(15) . 2_455
O21 Ca7 O10 89.7(14) . 2_455
O26 Ca7 O10 173.3(11) 2_545 2_455
O20 Ca7 O2 81.2(13) . .
O14 Ca7 O2 78.1(11) . .
O21 Ca7 O2 143.6(12) . .
O26 Ca7 O2 70.7(13) 2_545 .
O10 Ca7 O2 114.4(16) 2_455 .
O20 Ca7 O12 79.5(12) . 2
O14 Ca7 O12 172.7(12) . 2
O21 Ca7 O12 95.9(14) . 2
O26 Ca7 O12 79.2(12) 2_545 2
O10 Ca7 O12 103.1(16) 2_455 2
O2 Ca7 O12 104.1(12) . 2
O22 Ca8 O15 136.7(13) 4_647 .
O22 Ca8 O18 104.1(13) 4_647 2_445
O15 Ca8 O18 91.9(15) . 2_445
O22 Ca8 O20 146.6(16) 4_647 2_445
O15 Ca8 O20 74.2(15) . 2_445
O18 Ca8 O20 82.9(12) 2_445 2_445
O22 Ca8 O15 73.1(13) 4_647 4_647
O15 Ca8 O15 68.0(13) . 4_647
O18 Ca8 O15 86.2(14) 2_445 4_647
O20 Ca8 O15 140.2(17) 2_445 4_647
O11 Ca9 O11 180.0(12) 4_666 .
O11 Ca9 O4 99.8(11) 4_666 1_565
O11 Ca9 O4 80.2(11) . 1_565
O11 Ca9 O4 80.2(11) 4_666 4_656
O11 Ca9 O4 99.8(11) . 4_656
O4 Ca9 O4 180.000(6) 1_565 4_656
O11 Ca9 O1 96.4(11) 4_666 4_666
O11 Ca9 O1 83.6(11) . 4_666
O4 Ca9 O1 102.7(10) 1_565 4_666
O4 Ca9 O1 77.3(10) 4_656 4_666
O11 Ca9 O1 83.6(11) 4_666 .
O11 Ca9 O1 96.4(11) . .
O4 Ca9 O1 77.3(10) 1_565 .
O4 Ca9 O1 102.7(10) 4_656 .
O1 Ca9 O1 180.000(6) 4_666 .
O25 Ca10 O25 180.000(8) 1_655 4_647
O25 Ca10 O18 94.4(12) 1_655 .
O25 Ca10 O18 85.6(12) 4_647 .
O25 Ca10 O18 85.6(12) 1_655 4_747
O25 Ca10 O18 94.4(12) 4_647 4_747
O18 Ca10 O18 180.0(12) . 4_747
O25 Ca10 O27 100(3) 1_655 3_757
O25 Ca10 O27 80(3) 4_647 3_757
O18 Ca10 O27 96(4) . 3_757
O18 Ca10 O27 84(4) 4_747 3_757
O25 Ca10 O27 80(3) 1_655 2_545
O25 Ca10 O27 100(3) 4_647 2_545
O18 Ca10 O27 84(4) . 2_545
O18 Ca10 O27 96(4) 4_747 2_545
O27 Ca10 O27 180.00(3) 3_757 2_545
O26 C1 O13 122.1(18) 2_545 .
O26 C1 O16 118.9(17) 2_545 .
O13 C1 O16 119.0(17) . .
O5 C2 O23 119.8(17) 1_545 .
O5 C2 O21 121.6(18) 1_545 1_545
O23 C2 O21 118.6(18) . 1_545
O19 C3 O1 119.1(17) . .
O19 C3 O17 119.3(18) . .
O1 C3 O17 121.6(18) . .
O14 C4 O3 120.1(19) . .
O14 C4 O24 120.7(18) . .
O3 C4 O24 119.1(18) . .
O11 C5 O6 119.4(14) . 1_565
O11 C5 O8 120.5(15) . 1_565
O6 C5 O8 120.1(15) 1_565 1_565
O12 C6 O15 120.2(14) . .
O12 C6 O27 119.7(14) . .
O15 C6 O27 120.1(14) . .
O2 C7 O18 120.2(14) . .
O2 C7 O22 120.0(14) . .
O18 C7 O22 119.9(14) . .
O4 C8 O7 119.8(13) 2 .
O4 C8 O9 119.8(13) 2 .
O7 C8 O9 120.4(13) . .
O10 C9 O20 120.0(14) 3_756 4_656
O10 C9 O25 120.1(14) 3_756 3_656
O20 C9 O25 119.9(14) 4_656 3_656
C3 O1 Ca1 126(3) . .
C3 O1 Ca9 124(2) . .
Ca1 O1 Ca9 109.3(11) . .
C7 O2 O22 30.0(7) . .
C7 O2 Ca6 126(2) . .
O22 O2 Ca6 125(2) . .
C7 O2 Ca7 127(2) . .
O22 O2 Ca7 124(2) . .
Ca6 O2 Ca7 105.8(13) . .
C7 O2 Ca4 80.9(13) . .
O22 O2 Ca4 50.9(11) . .
Ca6 O2 Ca4 101.2(13) . .
Ca7 O2 Ca4 101.0(14) . .
C4 O3 O24 30.4(10) . .
C4 O3 Ca5 126(2) . .
O24 O3 Ca5 126.1(19) . .
C4 O3 Ca3 116.5(19) . .
O24 O3 Ca3 118.3(18) . .
Ca5 O3 Ca3 113.7(12) . .
C4 O3 Ca2 80.0(15) . 2_455
O24 O3 Ca2 49.6(10) . 2_455
Ca5 O3 Ca2 105.7(12) . 2_455
Ca3 O3 Ca2 103.4(11) . 2_455
C8 O4 Ca3 109.0(16) 2_445 .
C8 O4 Ca9 109.3(14) 2_445 1_545
Ca3 O4 Ca9 141.5(12) . 1_545
C2 O5 Ca6 114.1(18) 1_565 1_565
C2 O5 Ca4 126.3(19) 1_565 1_565
Ca6 O5 Ca4 112.5(10) 1_565 1_565
C5 O6 Ca5 112.0(17) 1_545 .
C5 O6 Ca1 108.8(18) 1_545 .
Ca5 O6 Ca1 138.0(14) . .
C8 O7 Ca1 124.3(17) . 3_766
C8 O7 Ca1 127.8(18) . .
Ca1 O7 Ca1 107.0(8) 3_766 .
C5 O8 Ca3 127(2) 1_545 .
C5 O8 Ca2 126(2) 1_545 .
Ca3 O8 Ca2 107.2(10) . .
C8 O9 Ca5 121(2) . .
C8 O9 Ca2 119(2) . 1_565
Ca5 O9 Ca2 115.8(11) . 1_565
C9 O10 O20 30.0(7) 3_756 2_545
C9 O10 Ca7 81.8(15) 3_756 2_545
O20 O10 Ca7 52.1(12) 2_545 2_545
C9 O10 Ca6 116(3) 3_756 .
O20 O10 Ca6 119(3) 2_545 .
Ca7 O10 Ca6 98.4(19) 2_545 .
C9 O10 Ca4 128(3) 3_756 2
O20 O10 Ca4 128(3) 2_545 2
Ca7 O10 Ca4 111(2) 2_545 2
Ca6 O10 Ca4 112.3(14) . 2
C5 O11 Ca9 114(2) . .
C6 O12 Ca4 125(3) . .
C6 O12 Ca7 110(3) . 2_445
Ca4 O12 Ca7 107.6(13) . 2_445
C1 O13 O16 30.8(10) . .
C1 O13 Ca2 124(2) . .
O16 O13 Ca2 124(2) . .
C1 O13 Ca3 80.3(15) . 2
O16 O13 Ca3 49.5(12) . 2
Ca2 O13 Ca3 104.7(16) . 2
C4 O14 Ca7 122.5(17) . .
C4 O14 Ca4 126.6(16) . .
Ca7 O14 Ca4 109.6(9) . .
C6 O15 Ca8 130(4) . .
C6 O15 Ca8 116(4) . 4_647
Ca8 O15 Ca8 112.0(13) . 4_647
C1 O16 O13 30.2(9) . .
C1 O16 Ca3 113(2) . 2
O13 O16 Ca3 82.7(17) . 2
C1 O16 Ca4 114.3(19) . 2
O13 O16 Ca4 144.5(16) . 2
Ca3 O16 Ca4 132.8(13) 2 2
C3 O17 Ca5 117(3) . .
C3 O17 Ca3 123(3) . 1_565
Ca5 O17 Ca3 115.9(10) . 1_565
C7 O18 Ca10 123(2) . .
C7 O18 Ca8 121(2) . 2
Ca10 O18 Ca8 111.7(10) . 2
C3 O19 Ca1 116.6(16) . 4_656
C3 O19 Ca2 108.4(15) . 2_455
Ca1 O19 Ca2 134.9(12) 4_656 2_455
C9 O20 O10 30.0(7) 4_656 2_455
C9 O20 Ca7 109.8(18) 4_656 .
O10 O20 Ca7 80.3(17) 2_455 .
C9 O20 Ca8 116.3(18) 4_656 2
O10 O20 Ca8 146.2(17) 2_455 2
Ca7 O20 Ca8 133.4(17) . 2
C2 O21 Ca5 121(2) 1_565 .
C2 O21 Ca7 109.6(18) 1_565 .
Ca5 O21 Ca7 129.7(12) . .
C7 O22 O2 30.0(7) . .
C7 O22 Ca8 105.6(16) . 4_647
O2 O22 Ca8 135.6(14) . 4_647
C7 O22 Ca4 107.4(16) . .
O2 O22 Ca4 77.4(14) . .
Ca8 O22 Ca4 147.0(15) 4_647 .
C2 O23 Ca3 120(3) . .
C2 O23 Ca2 128(3) . .
Ca3 O23 Ca2 111.8(11) . .
C4 O24 O3 30.5(10) . .
C4 O24 Ca2 111.2(17) . 2_455
O3 O24 Ca2 80.8(14) . 2_455
C4 O24 Ca6 113.3(17) . 2_455
O3 O24 Ca6 143.2(14) . 2_455
Ca2 O24 Ca6 134.7(13) 2_455 2_455
C9 O25 Ca10 125(2) 3_656 1_455
C1 O26 Ca6 122(2) 2_455 2_455
C1 O26 Ca7 124(2) 2_455 2_455
Ca6 O26 Ca7 113.4(13) 2_455 2_455
C1 O26 Ca4 79.2(14) 2_455 1_565
Ca6 O26 Ca4 101.9(12) 2_455 1_565
Ca7 O26 Ca4 99.4(11) 2_455 1_565
C6 O27 Ca10 126(3) . 2_455
loop_
_geom_bond_atom_site_label_1
_geom_bond_atom_site_label_2
_geom_bond_distance
_geom_bond_site_symmetry_2
Ca1 O19 2.17(3) 4_656
Ca1 O7 2.27(3) 3_766
Ca1 O1 2.36(4) .
Ca1 O6 2.34(4) .
Ca1 O7 2.42(3) .
Ca2 O24 2.22(3) 2_545
Ca2 O13 2.32(4) .
Ca2 O23 2.33(5) .
Ca2 O9 2.40(4) 1_545
Ca2 O19 2.27(3) 2_545
Ca2 O3 2.87(4) 2_545
Ca2 O8 2.43(4) .
Ca3 O23 2.36(5) .
Ca3 O16 2.27(4) 2_445
Ca3 O8 2.39(4) .
Ca3 O4 2.20(3) .
Ca3 O3 2.43(4) .
Ca3 O17 2.41(5) 1_545
Ca3 O13 2.96(4) 2_445
Ca4 O22 2.19(3) .
Ca4 O16 2.24(4) 2_445
Ca4 O14 2.34(3) .
Ca4 O12 2.24(5) .
Ca4 O5 2.26(4) 1_545
Ca4 O26 2.98(3) 1_545
Ca4 O2 2.75(4) .
Ca4 O10 2.29(6) 2_445
Ca5 O21 2.21(3) .
Ca5 O9 2.46(4) .
Ca5 O17 2.48(5) .
Ca5 O6 2.20(3) .
Ca5 O3 2.31(4) .
Ca6 O26 2.20(4) 2_545
Ca6 O2 2.37(5) .
Ca6 O5 2.51(3) 1_545
Ca6 O24 2.26(3) 2_545
Ca6 O10 2.59(6) .
Ca7 O20 2.37(4) .
Ca7 O14 2.43(3) .
Ca7 O21 2.37(4) .
Ca7 O26 2.25(4) 2_545
Ca7 O10 2.96(5) 2_455
Ca7 O2 2.29(4) .
Ca7 O12 2.73(4) 2
Ca8 O22 2.14(4) 4_647
Ca8 O15 2.40(5) .
Ca8 O18 2.44(4) 2_445
Ca8 O20 2.20(4) 2_445
Ca8 O15 2.41(5) 4_647
Ca9 O11 2.42(5) 4_666
Ca9 O11 2.42(5) .
Ca9 O4 2.25(3) 1_565
Ca9 O4 2.25(3) 4_656
Ca9 O1 2.45(4) 4_666
Ca9 O1 2.45(4) .
Ca10 O25 2.41(4) 1_655
Ca10 O25 2.41(4) 4_647
Ca10 O18 2.43(4) .
Ca10 O18 2.43(4) 4_747
Ca10 O27 2.03(4) 3_757
Ca10 O27 2.03(4) 2_545
C1 O26 1.279(17) 2_545
C1 O13 1.272(16) .
C1 O16 1.296(17) .
C2 O5 1.270(16) 1_545
C2 O23 1.292(17) .
C2 O21 1.282(17) 1_545
C3 O19 1.289(17) .
C3 O1 1.280(17) .
C3 O17 1.271(16) .
C4 O14 1.268(17) .
C4 O3 1.287(17) .
C4 O24 1.285(17) .
C5 O11 1.283(16) .
C5 O6 1.286(16) 1_565
C5 O8 1.278(13) 1_565
C6 O12 1.282(12) .
C6 O15 1.279(12) .
C6 O27 1.284(14) .
C7 O2 1.281(12) .
C7 O18 1.281(12) .
C7 O22 1.280(12) .
C8 O4 1.285(12) 2
C8 O7 1.273(12) .
C8 O9 1.284(12) .
C9 O10 1.279(12) 3_756
C9 O20 1.281(12) 4_656
C9 O25 1.282(12) 3_656
O2 O22 2.217(14) .
O3 O24 2.218(19) .
O3 Ca2 2.87(4) 2_455
O4 C8 1.285(12) 2_445
O4 Ca9 2.25(3) 1_545
O5 C2 1.270(16) 1_565
O5 Ca6 2.51(3) 1_565
O5 Ca4 2.26(4) 1_565
O6 C5 1.286(16) 1_545
O7 Ca1 2.27(3) 3_766
O8 C5 1.278(13) 1_545
O9 Ca2 2.40(4) 1_565
O10 C9 1.279(12) 3_756
O10 O20 2.218(14) 2_545
O10 Ca7 2.96(5) 2_545
O10 Ca4 2.29(6) 2
O12 Ca7 2.73(4) 2_445
O13 O16 2.213(18) .
O13 Ca3 2.96(4) 2
O15 Ca8 2.41(5) 4_647
O16 Ca3 2.27(4) 2
O16 Ca4 2.24(4) 2
O17 Ca3 2.41(5) 1_565
O18 Ca8 2.44(4) 2
O19 Ca1 2.17(3) 4_656
O19 Ca2 2.27(3) 2_455
O20 C9 1.281(13) 4_656
O20 O10 2.218(14) 2_455
O20 Ca8 2.20(4) 2
O21 C2 1.282(17) 1_565
O22 Ca8 2.14(4) 4_647
O24 Ca2 2.22(3) 2_455
O24 Ca6 2.26(3) 2_455
O25 C9 1.282(12) 3_656
O25 Ca10 2.41(4) 1_455
O26 C1 1.279(17) 2_455
O26 Ca6 2.20(4) 2_455
O26 Ca7 2.25(4) 2_455
O26 Ca4 2.98(3) 1_565
O27 Ca10 2.03(4) 2_455

#------------------------------------------------------------------------------
#$Date: 2023-12-06 13:08:03 +0000 (Wed, 06 Dec 2023) $
#$Revision: 288072 $
#$URL: svn://www.crystallography.net/cod/cif/1/54/73/1547347.cif $
#------------------------------------------------------------------------------
#
# This file is available in the Crystallography Open Database (COD),
# http://www.crystallography.net/
#
# All data on this site have been placed in the public domain by the
# contributors.
#
data_1547347
loop_
_publ_author_name
'Nobuo Ishizawa'
'Hayato Setoguchi'
'Kazumichi Yanagisawa'
_publ_section_title
;
 Structural evolution of calcite at high temperatures: Phase V unveiled
;
_journal_name_full               'Scientific Reports'
_journal_page_first              2832
_journal_paper_doi               10.1038/srep02832
_journal_volume                  3
_journal_year                    2013
_chemical_absolute_configuration .
_chemical_formula_sum            'C Ca O'
_chemical_formula_weight         68.1
_space_group_IT_number           167
_symmetry_cell_setting           trigonal
_symmetry_Int_Tables_number      167
_symmetry_space_group_name_Hall  '-R 3 2"c'
_symmetry_space_group_name_H-M   'R -3 c :H'
_cell_angle_alpha                90
_cell_angle_beta                 90
_cell_angle_gamma                120
_cell_formula_units_Z            36
_cell_length_a                   4.9877
_cell_length_b                   4.9877
_cell_length_c                   17.0530(3)
_cell_measurement_temperature    294
_cell_volume                     367.394(6)
_diffrn_ambient_temperature      294
_diffrn_measured_fraction_theta_full 1
_diffrn_measured_fraction_theta_max 1
_diffrn_measurement_device       'four-cycle diffractometer'
_diffrn_measurement_device_type  'Bruker CCD'
_diffrn_radiation_monochromator  graphite
_diffrn_radiation_probe          x-ray
_diffrn_radiation_source         'X-ray tube'
_diffrn_radiation_type           'Mo K\a'
_diffrn_radiation_wavelength     0.71073
_diffrn_reflns_av_R_equivalents  0.0273
_diffrn_reflns_av_sigmaI/netI    0.0116
_diffrn_reflns_limit_h_max       5
_diffrn_reflns_limit_h_min       -6
_diffrn_reflns_limit_k_max       6
_diffrn_reflns_limit_k_min       -6
_diffrn_reflns_limit_l_max       19
_diffrn_reflns_limit_l_min       -24
_diffrn_reflns_number            1501
_diffrn_reflns_theta_full        30.01
_diffrn_reflns_theta_max         30.01
_diffrn_reflns_theta_min         5.29
_exptl_absorpt_coefficient_mu    13.072
_exptl_crystal_density_diffrn    11.0755
_exptl_crystal_F_000             300
_refine_diff_density_max         0.16
_refine_diff_density_min         -0.15
_refine_ls_extinction_coef       380(140)
_refine_ls_extinction_method
'B-C type 1 Gaussian isotropic (Becker & Coppens, 1974)'
_refine_ls_goodness_of_fit_gt    1.69
_refine_ls_goodness_of_fit_ref   1.68
_refine_ls_number_constraints    0
_refine_ls_number_parameters     15
_refine_ls_number_reflns         121
_refine_ls_number_restraints     0
_refine_ls_R_factor_all          0.0134
_refine_ls_R_factor_gt           0.0133
_refine_ls_shift/su_max          0.0072
_refine_ls_shift/su_mean         0.0013
_refine_ls_structure_factor_coef F
_refine_ls_weighting_details     w=1/(\s^2^(F)+0.0001F^2^)
_refine_ls_weighting_scheme      sigma
_refine_ls_wR_factor_gt          0.0201
_refine_ls_wR_factor_ref         0.0201
_reflns_number_gt                120
_reflns_number_total             121
_reflns_threshold_expression     I>3\s(I)
_cod_data_source_file            srep02832-s21.cif
_cod_data_source_block           294K_hs25_RT_I_anharm
_cod_depositor_comments
;
The following automatic conversions were performed:

'_diffrn_radiation_probe' value 'X-ray' changed to 'x-ray' according
to the built-in table from CIF Core dictionary named 'cif_core.dic'
version 2.4.1 from 2010-06-29.

Automatic conversion script
Id: cif_fix_values 5376 2017-05-30 11:51:03Z andrius 

The following automatic conversions were performed:

data name '_atom_site_site_symmetry_mutiplicity' was replaced with
'_atom_site_site_symmetry_multiplicity' as specified in the
replacement file 'data/replacement-values/replacement_tags.lst'.

Automatic conversion script
Id: cif_correct_tags 9268 2022-04-12 08:56:07Z antanas 
;
_cod_original_sg_symbol_Hall     '-R 3;-2"c'
_cod_original_sg_symbol_H-M      'R -3 c'
_cod_original_formula_sum        'C1 Ca1 O1'
_cod_database_code               1547347
loop_
_symmetry_equiv_pos_site_id
_symmetry_equiv_pos_as_xyz
1 x,y,z
2 -y,x-y,z
3 -x+y,-x,z
4 y,x,-z+1/2
5 x-y,-y,-z+1/2
6 -x,-x+y,-z+1/2
7 -x,-y,-z
8 y,-x+y,-z
9 x-y,x,-z
10 -y,-x,z+1/2
11 -x+y,y,z+1/2
12 x,x-y,z+1/2
13 x+2/3,y+1/3,z+1/3
14 -y+2/3,x-y+1/3,z+1/3
15 -x+y+2/3,-x+1/3,z+1/3
16 y+2/3,x+1/3,-z+5/6
17 x-y+2/3,-y+1/3,-z+5/6
18 -x+2/3,-x+y+1/3,-z+5/6
19 -x+2/3,-y+1/3,-z+1/3
20 y+2/3,-x+y+1/3,-z+1/3
21 x-y+2/3,x+1/3,-z+1/3
22 -y+2/3,-x+1/3,z+5/6
23 -x+y+2/3,y+1/3,z+5/6
24 x+2/3,x-y+1/3,z+5/6
25 x+1/3,y+2/3,z+2/3
26 -y+1/3,x-y+2/3,z+2/3
27 -x+y+1/3,-x+2/3,z+2/3
28 y+1/3,x+2/3,-z+1/6
29 x-y+1/3,-y+2/3,-z+1/6
30 -x+1/3,-x+y+2/3,-z+1/6
31 -x+1/3,-y+2/3,-z+2/3
32 y+1/3,-x+y+2/3,-z+2/3
33 x-y+1/3,x+2/3,-z+2/3
34 -y+1/3,-x+2/3,z+1/6
35 -x+y+1/3,y+2/3,z+1/6
36 x+1/3,x-y+2/3,z+1/6
loop_
_atom_site_label
_atom_site_type_symbol
_atom_site_fract_x
_atom_site_fract_y
_atom_site_fract_z
_atom_site_adp_type
_atom_site_U_iso_or_equiv
_atom_site_site_symmetry_multiplicity
_atom_site_occupancy
_atom_site_calc_flag
_atom_site_refinement_flags
_atom_site_disorder_assembly
_atom_site_disorder_group
Ca1 Ca 0 0 0 Uani 0.01116(19) 6 1 d . . .
C1 C 0 0 0.25 Uani 0.0111(6) 6 1 d . . .
O1 O 0.2553(3) 0 0.25 Uani 0.0183(3) 18 1 d . . .
loop_
_atom_site_aniso_label
_atom_site_aniso_type_symbol
_atom_site_aniso_U_11
_atom_site_aniso_U_22
_atom_site_aniso_U_33
_atom_site_aniso_U_12
_atom_site_aniso_U_13
_atom_site_aniso_U_23
Ca1 Ca 0.0111(2) 0.0111(2) 0.0112(3) 0.00557(12) 0 0
C1 C 0.0116(7) 0.0116(7) 0.0101(10) 0.0058(3) 0 0
O1 O 0.0137(3) 0.0228(4) 0.0214(4) 0.01140(19) -0.00410(10) -0.0082(2)
loop_
_atom_type_symbol
_atom_type_scat_dispersion_real
_atom_type_scat_dispersion_imag
_atom_type_scat_source
C 0.0033 0.0016 'International Tables Vol C tables 4.2.6.8 and 6.1.1.1'
Ca 0.2262 0.3064 'International Tables Vol C tables 4.2.6.8 and 6.1.1.1'
O 0.0106 0.0060 'International Tables Vol C tables 4.2.6.8 and 6.1.1.1'
loop_
_geom_bond_atom_site_label_1
_geom_bond_atom_site_label_2
_geom_bond_site_symmetry_1
_geom_bond_site_symmetry_2
_geom_bond_distance
Ca1 Ca1 . 16_444 4.04602(7)
Ca1 Ca1 . 16_454 4.04602(7)
Ca1 Ca1 . 16_554 4.04602(7)
Ca1 Ca1 . 28_445 4.04602(7)
Ca1 Ca1 . 28_545 4.04602(7)
Ca1 Ca1 . 28_555 4.04602(7)
Ca1 C1 . 25_444 3.21121(2)
Ca1 C1 . 25_544 3.21121(2)
Ca1 C1 . 25_554 3.21121(2)
Ca1 C1 . 19_445 3.21121(2)
Ca1 C1 . 19_455 3.21121(2)
Ca1 C1 . 19_555 3.21121(2)
Ca1 O1 . 25_444 2.3626(7)
Ca1 O1 . 26_544 2.3626(7)
Ca1 O1 . 27_554 2.3626(11)
Ca1 O1 . 19_555 2.3626(7)
Ca1 O1 . 20_455 2.3626(7)
Ca1 O1 . 21_445 2.3626(11)
C1 O1 . . 1.2736(14)
C1 O1 . 2_555 1.2736(14)
C1 O1 . 3_555 1.2736(10)
loop_
_refln_index_h
_refln_index_k
_refln_index_l
_refln_F_squared_calc
_refln_F_squared_meas
_refln_F_squared_sigma
_refln_observed_status
-1 2 0 4899.48 4369.01 41.90 o
0 3 0 8424.16 8313.57 89.50 o
-2 4 0 2398.79 2413.05 26.29 o
-1 5 0 2755.42 2698.70 23.34 o
-3 6 0 1086.90 1057.00 13.62 o
0 6 0 659.62 645.79 26.05 o
-2 3 1 1656.38 1755.61 11.09 o
-1 4 1 9.65 9.80 0.29 o
-3 5 1 447.99 433.63 3.85 o
-5 6 1 199.38 201.79 3.03 o
-2 6 1 11.77 12.31 0.52 o
0 1 2 1107.41 1183.85 12.38 o
-2 2 2 7997.82 8106.90 77.52 o
-1 3 2 4807.50 4689.99 30.37 o
-3 4 2 567.72 555.48 4.12 o
0 4 2 4.40 4.93 0.36 o
-5 5 2 643.95 632.02 8.52 o
-2 5 2 1881.09 1809.31 14.91 o
-4 6 2 1061.46 1062.15 10.38 o
-1 6 2 1069.77 1103.13 12.83 o
-1 2 3 3760.96 4111.72 28.98 o
-2 4 3 19.81 18.26 0.41 o
-4 5 3 0.84 0.93 0.20 o
-1 5 3 0.13 0.70 0.20 o
-3 6 3 103.43 99.46 1.47 o
-1 1 4 21729.70 22017.30 234.25 o
0 2 4 4150.05 3892.24 35.94 o
-2 3 4 3140.35 3178.31 20.28 o
-4 4 4 7069.36 7003.49 71.72 o
-1 4 4 5076.15 5141.67 38.45 o
-3 5 4 1405.08 1429.26 11.91 o
0 5 4 1931.09 1961.77 23.10 o
-5 6 4 738.52 719.78 9.72 o
-2 6 4 921.31 907.52 8.43 o
-1 3 5 1330.46 1356.96 9.79 o
-3 4 5 22.36 21.93 0.48 o
-2 5 5 349.44 342.91 3.46 o
-4 6 5 11.17 12.20 0.59 o
-1 6 5 182.77 185.03 3.08 o
0 0 6 1401.90 1764.37 32.09 o
-1 2 6 6875.04 6870.13 48.38 o
-3 3 6 653.68 650.68 5.96 o
0 3 6 548.23 524.31 5.87 o
-2 4 6 2363.45 2325.36 18.50 o
-4 5 6 507.34 496.80 4.98 o
-1 5 6 565.01 557.63 5.07 o
-3 6 6 994.18 985.42 9.36 o
-2 3 7 933.98 978.38 6.71 o
-1 4 7 0.70 1.22 0.18 o
-3 5 7 367.98 362.59 3.65 o
-5 6 7 162.05 162.59 2.94 o
-2 6 7 9.14 8.28 0.52 o
0 1 8 12721.80 12595.30 143.80 o
-2 2 8 2643.93 2735.94 27.20 o
-1 3 8 2627.62 2568.72 21.28 o
-3 4 8 4101.87 4146.91 35.52 o
0 4 8 5585.01 5548.85 63.66 o
-5 5 8 1541.04 1612.11 23.38 o
-2 5 8 1124.93 1139.97 11.02 o
-4 6 8 966.60 964.82 12.67 o
-1 6 8 711.68 700.52 10.33 o
-1 2 9 1491.19 1543.14 11.09 o
-2 4 9 11.92 12.22 0.43 o
-4 5 9 2.82 2.76 0.34 o
-1 5 9 2.12 1.88 0.27 o
-3 6 9 75.41 80.03 1.65 o
-1 1 10 1086.31 1020.76 11.42 o
0 2 10 3319.96 3288.39 35.88 o
-2 3 10 2678.08 2643.42 22.61 o
-4 4 10 20.70 21.23 0.79 o
-1 4 10 473.57 465.14 4.51 o
-3 5 10 1191.26 1164.84 12.22 o
0 5 10 427.35 423.39 7.11 o
-2 6 10 911.41 933.02 11.12 o
-1 3 11 581.63 583.23 5.62 o
-3 4 11 22.83 23.11 0.61 o
-2 5 11 186.71 197.33 2.60 o
-4 6 11 8.10 6.88 0.75 o
0 0 12 14533.80 14577.40 265.88 o
-1 2 12 2122.55 2165.17 17.84 o
-3 3 12 3626.10 3743.19 45.96 o
0 3 12 3972.55 3897.41 50.93 o
-2 4 12 1459.18 1473.65 14.61 o
-4 5 12 1818.02 1899.37 21.28 o
-1 5 12 1660.19 1695.75 16.31 o
-3 6 12 792.14 804.29 22.36 o
-2 3 13 331.10 328.94 3.56 o
-1 4 13 0.39 0.66 0.25 <
-3 5 13 218.08 224.77 3.49 o
0 1 14 699.46 680.85 9.13 o
-2 2 14 2344.19 2311.52 30.76 o
-1 3 14 1519.86 1472.74 15.20 o
-3 4 14 344.71 343.68 3.98 o
0 4 14 39.83 42.35 1.34 o
-2 5 14 1020.26 1015.29 11.42 o
-1 2 15 428.17 426.47 4.85 o
-2 4 15 5.62 5.88 0.43 o
-4 5 15 3.18 4.25 1.06 o
-1 5 15 3.85 4.64 0.68 o
-1 1 16 3530.34 3448.91 45.57 o
0 2 16 1625.01 1580.31 25.32 o
-2 3 16 1262.43 1252.86 13.78 o
-4 4 16 2804.04 2855.66 58.51 o
-1 4 16 1983.42 1925.53 21.74 o
-3 5 16 848.60 920.68 15.84 o
-1 3 17 211.43 207.36 2.92 o
-3 4 17 15.97 16.59 0.72 o
0 0 18 34.85 35.44 2.10 o
-1 2 18 1328.35 1302.12 15.87 o
-3 3 18 348.07 350.54 7.49 o
0 3 18 259.82 254.66 5.21 o
-2 4 18 797.36 808.55 10.33 o
-2 3 19 107.35 106.09 1.88 o
-1 4 19 1.34 2.60 0.63 o
0 1 20 2198.81 2200.22 32.28 o
-2 2 20 884.03 885.20 15.07 o
-1 3 20 1004.13 981.66 12.42 o
-1 2 21 131.18 128.59 2.42 o
-1 1 22 368.51 389.87 6.82 o
0 2 22 638.59 648.56 18.50 o
0 0 24 2131.15 1982.24 73.00 o
loop_
_jana_atom_site_adp_c_label
_jana_atom_site_adp_c_type_symbol
_jana_atom_site_adp_c_111
_jana_atom_site_adp_c_112
_jana_atom_site_adp_c_113
_jana_atom_site_adp_c_122
_jana_atom_site_adp_c_123
_jana_atom_site_adp_c_133
_jana_atom_site_adp_c_222
_jana_atom_site_adp_c_223
_jana_atom_site_adp_c_233
_jana_atom_site_adp_c_333
O1 O -0.013(2) 0.002(2) 0.0004(2) 0.002(2) 0.0004(2) -0.00013(7) 0 0 0 0

#------------------------------------------------------------------------------
#$Date: 2023-12-06 13:08:03 +0000 (Wed, 06 Dec 2023) $
#$Revision: 288072 $
#$URL: svn://www.crystallography.net/cod/cif/1/54/73/1547348.cif $
#------------------------------------------------------------------------------
#
# This file is available in the Crystallography Open Database (COD),
# http://www.crystallography.net/
#
# All data on this site have been placed in the public domain by the
# contributors.
#
data_1547348
loop_
_publ_author_name
'Nobuo Ishizawa'
'Hayato Setoguchi'
'Kazumichi Yanagisawa'
_publ_section_title
;
 Structural evolution of calcite at high temperatures: Phase V unveiled
;
_journal_name_full               'Scientific Reports'
_journal_page_first              2832
_journal_paper_doi               10.1038/srep02832
_journal_volume                  3
_journal_year                    2013
_chemical_absolute_configuration .
_chemical_formula_sum            'C Ca O'
_chemical_formula_weight         68.1
_space_group_IT_number           167
_symmetry_cell_setting           trigonal
_symmetry_Int_Tables_number      167
_symmetry_space_group_name_Hall  '-R 3 2"c'
_symmetry_space_group_name_H-M   'R -3 c :H'
_cell_angle_alpha                90
_cell_angle_beta                 90
_cell_angle_gamma                120
_cell_formula_units_Z            36
_cell_length_a                   4.988
_cell_length_b                   4.988
_cell_length_c                   17.0607(3)
_cell_measurement_temperature    294
_cell_volume                     367.604(6)
_diffrn_ambient_temperature      294
_diffrn_measured_fraction_theta_full 1
_diffrn_measured_fraction_theta_max 1
_diffrn_measurement_device       'four-cycle diffractometer'
_diffrn_measurement_device_type  'Bruker CCD'
_diffrn_radiation_monochromator  graphite
_diffrn_radiation_probe          x-ray
_diffrn_radiation_source         'X-ray tube'
_diffrn_radiation_type           'Mo K\a'
_diffrn_radiation_wavelength     0.71073
_diffrn_reflns_av_R_equivalents  0.0179
_diffrn_reflns_av_sigmaI/netI    0.0141
_diffrn_reflns_limit_h_max       8
_diffrn_reflns_limit_h_min       -7
_diffrn_reflns_limit_k_max       7
_diffrn_reflns_limit_k_min       -6
_diffrn_reflns_limit_l_max       28
_diffrn_reflns_limit_l_min       -30
_diffrn_reflns_number            1751
_diffrn_reflns_theta_full        40.08
_diffrn_reflns_theta_max         40.08
_diffrn_reflns_theta_min         5.29
_exptl_absorpt_coefficient_mu    13.064
_exptl_crystal_density_diffrn    11.0691
_exptl_crystal_F_000             300
_refine_diff_density_max         0.23
_refine_diff_density_min         -0.47
_refine_ls_extinction_coef       4900(300)
_refine_ls_extinction_method
'B-C type 1 Gaussian isotropic (Becker & Coppens, 1974)'
_refine_ls_goodness_of_fit_gt    1.85
_refine_ls_goodness_of_fit_ref   1.83
_refine_ls_number_constraints    0
_refine_ls_number_parameters     15
_refine_ls_number_reflns         257
_refine_ls_number_restraints     0
_refine_ls_R_factor_all          0.0181
_refine_ls_R_factor_gt           0.0177
_refine_ls_shift/su_max          0.0067
_refine_ls_shift/su_mean         0.0030
_refine_ls_structure_factor_coef F
_refine_ls_weighting_details     w=1/(\s^2^(F)+0.0001F^2^)
_refine_ls_weighting_scheme      sigma
_refine_ls_wR_factor_gt          0.0240
_refine_ls_wR_factor_ref         0.0241
_reflns_number_gt                250
_reflns_number_total             257
_reflns_threshold_expression     I>3\s(I)
_cod_data_source_file            srep02832-s22.cif
_cod_data_source_block           294K_hs29_RT2_I_anharm
_cod_depositor_comments
;
The following automatic conversions were performed:

'_diffrn_radiation_probe' value 'X-ray' changed to 'x-ray' according
to the built-in table from CIF Core dictionary named 'cif_core.dic'
version 2.4.1 from 2010-06-29.

Automatic conversion script
Id: cif_fix_values 5376 2017-05-30 11:51:03Z andrius 

The following automatic conversions were performed:

data name '_atom_site_site_symmetry_mutiplicity' was replaced with
'_atom_site_site_symmetry_multiplicity' as specified in the
replacement file 'data/replacement-values/replacement_tags.lst'.

Automatic conversion script
Id: cif_correct_tags 9268 2022-04-12 08:56:07Z antanas 
;
_cod_original_sg_symbol_Hall     '-R 3;-2"c'
_cod_original_sg_symbol_H-M      'R -3 c'
_cod_original_formula_sum        'C1 Ca1 O1'
_cod_database_code               1547348
loop_
_symmetry_equiv_pos_site_id
_symmetry_equiv_pos_as_xyz
1 x,y,z
2 -y,x-y,z
3 -x+y,-x,z
4 y,x,-z+1/2
5 x-y,-y,-z+1/2
6 -x,-x+y,-z+1/2
7 -x,-y,-z
8 y,-x+y,-z
9 x-y,x,-z
10 -y,-x,z+1/2
11 -x+y,y,z+1/2
12 x,x-y,z+1/2
13 x+2/3,y+1/3,z+1/3
14 -y+2/3,x-y+1/3,z+1/3
15 -x+y+2/3,-x+1/3,z+1/3
16 y+2/3,x+1/3,-z+5/6
17 x-y+2/3,-y+1/3,-z+5/6
18 -x+2/3,-x+y+1/3,-z+5/6
19 -x+2/3,-y+1/3,-z+1/3
20 y+2/3,-x+y+1/3,-z+1/3
21 x-y+2/3,x+1/3,-z+1/3
22 -y+2/3,-x+1/3,z+5/6
23 -x+y+2/3,y+1/3,z+5/6
24 x+2/3,x-y+1/3,z+5/6
25 x+1/3,y+2/3,z+2/3
26 -y+1/3,x-y+2/3,z+2/3
27 -x+y+1/3,-x+2/3,z+2/3
28 y+1/3,x+2/3,-z+1/6
29 x-y+1/3,-y+2/3,-z+1/6
30 -x+1/3,-x+y+2/3,-z+1/6
31 -x+1/3,-y+2/3,-z+2/3
32 y+1/3,-x+y+2/3,-z+2/3
33 x-y+1/3,x+2/3,-z+2/3
34 -y+1/3,-x+2/3,z+1/6
35 -x+y+1/3,y+2/3,z+1/6
36 x+1/3,x-y+2/3,z+1/6
loop_
_atom_site_label
_atom_site_type_symbol
_atom_site_fract_x
_atom_site_fract_y
_atom_site_fract_z
_atom_site_adp_type
_atom_site_U_iso_or_equiv
_atom_site_site_symmetry_multiplicity
_atom_site_occupancy
_atom_site_calc_flag
_atom_site_refinement_flags
_atom_site_disorder_assembly
_atom_site_disorder_group
Ca1 Ca 0 0 0 Uani 0.01055(10) 6 1 d . . .
C1 C 0 0 0.25 Uani 0.0101(3) 6 1 d . . .
O1 O 0.25620(18) 0 0.25 Uani 0.01740(16) 18 1 d . . .
loop_
_atom_site_aniso_label
_atom_site_aniso_type_symbol
_atom_site_aniso_U_11
_atom_site_aniso_U_22
_atom_site_aniso_U_33
_atom_site_aniso_U_12
_atom_site_aniso_U_13
_atom_site_aniso_U_23
Ca1 Ca 0.01081(13) 0.01081(13) 0.01003(13) 0.00540(6) 0 0
C1 C 0.0095(3) 0.0095(3) 0.0111(5) 0.00477(17) 0 0
O1 O 0.01208(17) 0.0230(2) 0.0208(2) 0.01149(12) -0.00424(7) -0.00847(15)
loop_
_atom_type_symbol
_atom_type_scat_dispersion_real
_atom_type_scat_dispersion_imag
_atom_type_scat_source
C 0.0033 0.0016 'International Tables Vol C tables 4.2.6.8 and 6.1.1.1'
Ca 0.2262 0.3064 'International Tables Vol C tables 4.2.6.8 and 6.1.1.1'
O 0.0106 0.0060 'International Tables Vol C tables 4.2.6.8 and 6.1.1.1'
loop_
_geom_bond_atom_site_label_1
_geom_bond_atom_site_label_2
_geom_bond_site_symmetry_1
_geom_bond_site_symmetry_2
_geom_bond_distance
Ca1 Ca1 . 16_444 4.04705(7)
Ca1 Ca1 . 16_454 4.04705(7)
Ca1 Ca1 . 16_554 4.04705(7)
Ca1 Ca1 . 28_445 4.04705(7)
Ca1 Ca1 . 28_545 4.04705(7)
Ca1 Ca1 . 28_555 4.04705(7)
Ca1 C1 . 25_444 3.21165(2)
Ca1 C1 . 25_544 3.21165(2)
Ca1 C1 . 25_554 3.21165(2)
Ca1 C1 . 19_445 3.21165(2)
Ca1 C1 . 19_455 3.21165(2)
Ca1 C1 . 19_555 3.21165(2)
Ca1 O1 . 25_444 2.3608(5)
Ca1 O1 . 26_544 2.3608(5)
Ca1 O1 . 27_554 2.3608(7)
Ca1 O1 . 19_555 2.3608(5)
Ca1 O1 . 20_455 2.3608(5)
Ca1 O1 . 21_445 2.3608(7)
C1 O1 . . 1.2779(9)
C1 O1 . 2_555 1.2779(9)
C1 O1 . 3_555 1.2779(6)
loop_
_refln_index_h
_refln_index_k
_refln_index_l
_refln_F_squared_calc
_refln_F_squared_meas
_refln_F_squared_sigma
_refln_observed_status
-1 2 0 4850.39 4632.82 112.00 o
0 3 0 8545.38 8237.15 283.47 o
-2 4 0 2480.27 2484.44 29.10 o
-1 5 0 2860.80 2844.92 24.30 o
-3 6 0 1113.37 1088.63 14.56 o
0 6 0 654.33 628.65 11.50 o
-2 7 0 842.40 816.48 8.22 o
-4 8 0 1596.10 1612.34 21.64 o
-1 8 0 828.90 873.39 16.14 o
-2 3 1 1666.70 1803.85 22.60 o
-1 4 1 10.46 9.98 0.43 o
-3 5 1 483.96 456.05 4.18 o
-5 6 1 197.13 196.30 2.83 o
-2 6 1 8.66 11.65 0.52 o
-4 7 1 11.51 12.31 0.67 o
-1 7 1 62.14 65.22 1.75 o
-6 8 1 11.31 9.13 0.77 o
-3 8 1 3.35 1.91 0.43 o
-5 9 1 2.31 2.53 0.89 <
0 1 2 1134.26 1204.51 29.11 o
-2 2 2 8071.12 8923.15 216.02 o
-1 3 2 4827.21 5095.28 63.15 o
-3 4 2 543.90 557.13 4.81 o
0 4 2 2.84 6.19 0.45 o
-5 5 2 632.42 673.71 9.64 o
-2 5 2 1845.10 1813.77 15.40 o
-4 6 2 1087.95 1080.51 10.25 o
-1 6 2 1104.29 1079.34 10.23 o
-6 7 2 505.54 490.61 7.73 o
-3 7 2 191.57 185.14 2.65 o
0 7 2 119.97 123.97 5.22 o
-5 8 2 143.90 138.75 2.34 o
-2 8 2 313.58 314.53 4.46 o
-4 9 2 195.38 185.47 5.12 o
-1 2 3 3800.13 4065.77 69.48 o
-2 4 3 22.46 18.36 0.57 o
-4 5 3 1.84 0.79 0.24 o
-1 5 3 0.00 0.12 0.18 <
-3 6 3 115.89 103.37 1.55 o
-5 7 3 134.40 134.14 2.15 o
-2 7 3 113.69 112.10 1.77 o
-7 8 3 13.78 12.33 1.95 o
-4 8 3 1.10 0.57 0.35 <
-1 8 3 7.23 5.93 1.58 o
-1 1 4 21675.70 19618.10 499.24 o
0 2 4 4152.81 4024.26 97.10 o
-2 3 4 3168.79 3296.13 36.59 o
-4 4 4 7281.30 7638.07 81.52 o
-1 4 4 5209.34 5237.60 40.24 o
-3 5 4 1486.47 1442.43 11.73 o
0 5 4 2016.45 2000.30 19.97 o
-5 6 4 746.99 740.07 8.09 o
-2 6 4 937.03 902.23 8.05 o
-7 7 4 1024.68 991.43 23.83 o
-4 7 4 1659.80 1637.84 14.06 o
-1 7 4 697.31 699.32 8.01 o
-6 8 4 560.26 574.05 8.64 o
-3 8 4 977.03 969.96 9.81 o
-1 3 5 1346.23 1373.26 15.64 o
-3 4 5 24.27 23.16 0.65 o
-2 5 5 379.51 358.38 3.62 o
-4 6 5 8.74 11.12 0.53 o
-1 6 5 180.42 186.97 2.54 o
-6 7 5 52.76 52.55 1.85 o
-3 7 5 5.65 9.64 0.57 o
-5 8 5 0.54 0.03 0.32 <
-2 8 5 9.63 9.00 0.77 o
0 0 6 1392.00 1734.98 59.90 o
-1 2 6 6994.32 7527.05 128.69 o
-3 3 6 649.80 635.98 8.27 o
0 3 6 545.87 541.46 7.23 o
-2 4 6 2349.86 2375.47 21.05 o
-4 5 6 493.44 509.26 4.47 o
-1 5 6 554.62 565.99 4.58 o
-6 6 6 926.42 873.60 20.90 o
-3 6 6 1016.17 970.80 8.61 o
0 6 6 736.95 726.81 10.49 o
-5 7 6 491.85 489.99 5.42 o
-2 7 6 546.20 537.10 5.85 o
-7 8 6 73.41 77.46 4.28 o
-4 8 6 23.84 20.16 0.91 o
-1 8 6 90.09 94.86 4.79 o
-2 3 7 941.71 999.06 10.46 o
-1 4 7 0.73 0.80 0.18 o
-3 5 7 398.32 373.61 3.85 o
-5 6 7 161.58 169.73 2.36 o
-2 6 7 6.29 8.66 0.55 o
-4 7 7 14.62 14.42 0.67 o
-1 7 7 57.16 58.38 1.40 o
-6 8 7 10.69 8.90 1.03 o
-3 8 7 7.34 6.12 0.55 o
0 1 8 12779.60 10581.90 268.51 o
-2 2 8 2648.66 2803.09 55.05 o
-1 3 8 2665.81 2748.14 24.06 o
-3 4 8 4245.45 4388.00 43.90 o
0 4 8 5771.21 5793.40 62.34 o
-5 5 8 1611.85 1637.69 21.17 o
-2 5 8 1189.06 1183.91 10.17 o
-4 6 8 992.88 980.32 8.73 o
-1 6 8 729.42 707.71 7.18 o
-6 7 8 589.92 572.10 11.08 o
-3 7 8 1383.51 1348.18 11.86 o
0 7 8 953.40 999.96 17.83 o
-5 8 8 871.36 902.16 9.28 o
-2 8 8 478.90 480.98 6.85 o
-1 2 9 1516.36 1590.69 14.50 o
-2 4 9 13.40 12.07 0.41 o
-4 5 9 4.27 3.50 0.35 o
-1 5 9 1.29 2.32 0.25 o
-3 6 9 85.39 80.15 1.49 o
-5 7 9 120.38 119.34 1.91 o
-2 7 9 72.76 73.81 1.59 o
-4 8 9 0.85 0.09 0.33 <
-1 1 10 1136.51 1116.54 20.02 o
0 2 10 3400.88 3504.37 42.25 o
-2 3 10 2743.01 2782.98 20.17 o
-4 4 10 17.95 19.00 0.77 o
-1 4 10 477.28 468.49 3.89 o
-3 5 10 1184.72 1179.79 11.02 o
0 5 10 424.91 416.34 4.96 o
-5 6 10 887.66 875.03 9.37 o
-2 6 10 953.03 931.37 9.02 o
-7 7 10 112.45 107.72 4.97 o
-4 7 10 137.14 132.94 2.04 o
-1 7 10 372.58 383.30 4.64 o
-6 8 10 243.29 251.54 6.00 o
-3 8 10 124.66 118.18 2.04 o
-1 3 11 596.09 608.60 5.09 o
-3 4 11 24.86 23.45 0.55 o
-2 5 11 205.30 199.55 2.43 o
-4 6 11 6.71 8.40 0.56 o
-1 6 11 127.09 127.61 2.10 o
-6 7 11 35.18 39.53 2.01 o
-3 7 11 1.38 1.12 0.36 o
-5 8 11 0.05 0.13 0.36 <
-2 8 11 6.62 6.09 1.11 o
-1 2 12 2148.77 2277.63 13.20 o
-3 3 12 3733.23 3935.36 32.05 o
0 3 12 4082.79 4269.74 46.12 o
-2 4 12 1526.37 1554.75 10.50 o
-4 5 12 1921.32 1927.25 17.15 o
-1 5 12 1746.28 1727.34 12.04 o
-6 6 12 392.45 390.26 11.23 o
-3 6 12 826.29 810.73 8.02 o
0 6 12 634.62 638.84 7.36 o
-5 7 12 662.75 657.40 7.58 o
-2 7 12 565.02 573.35 6.88 o
-4 8 12 1111.90 1154.20 12.21 o
-2 3 13 336.96 344.85 3.00 o
-1 4 13 0.47 0.96 0.21 o
-3 5 13 238.24 228.68 2.63 o
-5 6 13 103.92 102.36 2.00 o
-2 6 13 3.54 3.17 0.44 o
-4 7 13 12.89 13.70 0.72 o
-1 7 13 41.98 46.26 1.43 o
-3 8 13 9.58 8.14 0.99 o
0 1 14 745.71 729.85 6.39 o
-2 2 14 2458.47 2431.45 19.55 o
-1 3 14 1589.30 1582.41 10.45 o
-3 4 14 352.01 350.52 2.98 o
0 4 14 40.63 41.89 1.24 o
-5 5 14 458.36 453.62 12.28 o
-2 5 14 1048.46 1029.93 7.95 o
-4 6 14 551.72 563.37 6.56 o
-1 6 14 619.48 614.53 5.66 o
-6 7 14 344.88 359.13 11.07 o
-3 7 14 160.46 164.03 2.60 o
-1 2 15 440.66 447.50 2.94 o
-2 4 15 6.21 6.45 0.34 o
-4 5 15 4.39 3.73 0.47 o
-1 5 15 3.09 4.14 0.42 o
-3 6 15 50.10 50.95 1.39 o
-5 7 15 84.31 91.38 2.02 o
-2 7 15 36.27 38.29 1.46 o
-1 1 16 3620.86 3814.48 28.69 o
0 2 16 1680.59 1701.54 14.11 o
-2 3 16 1308.02 1323.49 8.53 o
-4 4 16 2963.38 2936.36 43.86 o
-1 4 16 2077.44 2038.07 14.02 o
-3 5 16 918.94 930.69 8.37 o
0 5 16 1175.95 1188.81 13.91 o
-5 6 16 450.56 454.94 7.25 o
-2 6 16 506.64 498.33 5.15 o
-4 7 16 973.40 978.24 10.72 o
-1 7 16 443.34 439.23 12.65 o
-1 3 17 220.94 216.65 1.84 o
-3 4 17 17.51 17.11 0.49 o
-2 5 17 89.50 87.76 1.27 o
-4 6 17 4.23 3.53 0.53 o
-1 6 17 73.10 74.81 1.53 o
-3 7 17 0.04 0.39 0.43 <
0 0 18 45.16 39.35 1.10 o
-1 2 18 1427.97 1404.03 7.54 o
-3 3 18 379.12 376.64 3.78 o
0 3 18 286.23 279.80 3.33 o
-2 4 18 846.35 839.24 6.33 o
-4 5 18 254.34 258.52 3.58 o
-1 5 18 326.07 324.01 3.06 o
-6 6 18 518.43 507.67 14.09 o
-3 6 18 470.15 478.71 5.38 o
0 6 18 284.06 297.97 5.45 o
-5 7 18 236.65 247.86 6.05 o
-2 7 18 309.10 324.98 7.04 o
-2 3 19 111.07 111.04 1.21 o
-1 4 19 1.60 1.77 0.29 o
-3 5 19 118.93 120.46 1.65 o
-5 6 19 55.21 59.35 2.60 o
-2 6 19 1.63 1.40 0.39 o
-4 7 19 8.54 7.49 1.22 o
0 1 20 2296.29 2262.43 14.87 o
-2 2 20 922.38 927.16 6.84 o
-1 3 20 1056.77 1044.19 6.50 o
-3 4 20 1493.70 1505.27 9.84 o
0 4 20 1924.44 1921.75 19.11 o
-5 5 20 675.94 668.84 17.44 o
-2 5 20 548.00 543.22 4.83 o
-4 6 20 549.89 559.09 7.40 o
-1 6 20 397.94 405.79 4.42 o
-1 2 21 137.40 134.12 1.24 o
-2 4 21 2.71 2.84 0.32 o
-4 5 21 3.01 1.91 0.51 o
-1 5 21 3.42 3.36 0.36 o
-3 6 21 24.79 26.53 1.04 o
-1 1 22 422.18 406.20 3.33 o
0 2 22 710.02 686.24 6.43 o
-2 3 22 735.83 723.97 4.64 o
-4 4 22 49.95 51.60 1.64 o
-1 4 22 244.63 242.95 2.40 o
-3 5 22 404.32 408.42 3.92 o
0 5 22 169.89 171.65 2.97 o
-2 6 22 402.54 420.65 5.41 o
-1 3 23 82.00 78.68 1.08 o
-3 4 23 10.17 10.41 0.47 o
-2 5 23 33.87 34.04 0.87 o
0 0 24 2261.86 2194.87 24.22 o
-1 2 24 745.14 724.56 4.53 o
-3 3 24 1045.70 1028.41 11.07 o
0 3 24 1181.76 1172.07 10.44 o
-2 4 24 577.22 590.36 4.32 o
-4 5 24 684.91 681.49 8.76 o
-1 5 24 594.34 596.92 7.01 o
-2 3 25 36.28 35.28 0.75 o
-1 4 25 1.67 2.04 0.32 o
-3 5 25 51.30 53.75 1.31 o
0 1 26 261.91 251.45 2.59 o
-2 2 26 577.95 569.74 5.71 o
-1 3 26 402.63 402.23 3.12 o
-3 4 26 149.64 158.36 2.02 o
0 4 26 50.87 55.70 2.04 o
-1 2 27 45.00 43.47 0.73 o
-2 4 27 1.10 1.90 0.45 o
-1 1 28 816.43 798.94 7.07 o
0 2 28 546.71 544.72 5.25 o
-2 3 28 422.25 425.48 4.33 o
-1 3 29 28.51 27.40 0.89 o
0 0 30 70.54 77.15 2.39 o
-1 2 30 314.19 324.79 3.41 o
loop_
_jana_atom_site_adp_c_label
_jana_atom_site_adp_c_type_symbol
_jana_atom_site_adp_c_111
_jana_atom_site_adp_c_112
_jana_atom_site_adp_c_113
_jana_atom_site_adp_c_122
_jana_atom_site_adp_c_123
_jana_atom_site_adp_c_133
_jana_atom_site_adp_c_222
_jana_atom_site_adp_c_223
_jana_atom_site_adp_c_233
_jana_atom_site_adp_c_333
O1 O -0.0037(9) -0.0006(8) 0.00027(12) -0.0006(8) 0.00027(12) -0.00009(4) 0 0 0
0

#------------------------------------------------------------------------------
#$Date: 2023-12-06 13:08:03 +0000 (Wed, 06 Dec 2023) $
#$Revision: 288072 $
#$URL: svn://www.crystallography.net/cod/cif/1/54/73/1547349.cif $
#------------------------------------------------------------------------------
#
# This file is available in the Crystallography Open Database (COD),
# http://www.crystallography.net/
#
# All data on this site have been placed in the public domain by the
# contributors.
#
data_1547349
loop_
_publ_author_name
'Nobuo Ishizawa'
'Hayato Setoguchi'
'Kazumichi Yanagisawa'
_publ_section_title
;
 Structural evolution of calcite at high temperatures: Phase V unveiled
;
_journal_name_full               'Scientific Reports'
_journal_page_first              2832
_journal_paper_doi               10.1038/srep02832
_journal_volume                  3
_journal_year                    2013
_chemical_absolute_configuration .
_chemical_formula_sum            'C Ca O'
_chemical_formula_weight         68.1
_space_group_IT_number           167
_symmetry_cell_setting           trigonal
_symmetry_Int_Tables_number      167
_symmetry_space_group_name_Hall  '-R 3 2"c'
_symmetry_space_group_name_H-M   'R -3 c :H'
_cell_angle_alpha                90
_cell_angle_beta                 90
_cell_angle_gamma                120
_cell_formula_units_Z            36
_cell_length_a                   4.986
_cell_length_b                   4.986
_cell_length_c                   17.0592(3)
_cell_measurement_temperature    294
_cell_volume                     367.277(6)
_diffrn_ambient_temperature      294
_diffrn_measured_fraction_theta_full 1
_diffrn_measured_fraction_theta_max 1
_diffrn_measurement_device       'four-cycle diffractometer'
_diffrn_measurement_device_type  'Bruker CCD'
_diffrn_radiation_monochromator  graphite
_diffrn_radiation_probe          x-ray
_diffrn_radiation_source         'X-ray tube'
_diffrn_radiation_type           'Mo K\a'
_diffrn_radiation_wavelength     0.71073
_diffrn_reflns_av_R_equivalents  0.0168
_diffrn_reflns_av_sigmaI/netI    0.0097
_diffrn_reflns_limit_h_max       5
_diffrn_reflns_limit_h_min       -7
_diffrn_reflns_limit_k_max       8
_diffrn_reflns_limit_k_min       -4
_diffrn_reflns_limit_l_max       26
_diffrn_reflns_limit_l_min       -24
_diffrn_reflns_number            1294
_diffrn_reflns_theta_full        35
_diffrn_reflns_theta_max         35
_diffrn_reflns_theta_min         5.29
_exptl_absorpt_coefficient_mu    13.076
_exptl_crystal_density_diffrn    11.079
_exptl_crystal_F_000             300
_refine_diff_density_max         0.31
_refine_diff_density_min         -0.19
_refine_ls_extinction_coef       20(120)
_refine_ls_extinction_method
'B-C type 1 Gaussian isotropic (Becker & Coppens, 1974)'
_refine_ls_goodness_of_fit_gt    1.81
_refine_ls_goodness_of_fit_ref   1.77
_refine_ls_number_constraints    0
_refine_ls_number_parameters     15
_refine_ls_number_reflns         183
_refine_ls_number_restraints     0
_refine_ls_R_factor_all          0.0180
_refine_ls_R_factor_gt           0.0173
_refine_ls_shift/su_max          0.0060
_refine_ls_shift/su_mean         0.0017
_refine_ls_structure_factor_coef F
_refine_ls_weighting_details     w=1/(\s^2^(F)+0.0001F^2^)
_refine_ls_weighting_scheme      sigma
_refine_ls_wR_factor_gt          0.0230
_refine_ls_wR_factor_ref         0.0231
_reflns_number_gt                176
_reflns_number_total             183
_reflns_threshold_expression     I>3\s(I)
_cod_data_source_file            srep02832-s24.cif
_cod_data_source_block           294K_hs30_RT_I_anharm_after_cool
_cod_depositor_comments
;
The following automatic conversions were performed:

'_diffrn_radiation_probe' value 'X-ray' changed to 'x-ray' according
to the built-in table from CIF Core dictionary named 'cif_core.dic'
version 2.4.1 from 2010-06-29.

Automatic conversion script
Id: cif_fix_values 5376 2017-05-30 11:51:03Z andrius 

The following automatic conversions were performed:

data name '_atom_site_site_symmetry_mutiplicity' was replaced with
'_atom_site_site_symmetry_multiplicity' as specified in the
replacement file 'data/replacement-values/replacement_tags.lst'.

Automatic conversion script
Id: cif_correct_tags 9268 2022-04-12 08:56:07Z antanas 
;
_cod_original_sg_symbol_Hall     '-R 3;-2"c'
_cod_original_sg_symbol_H-M      'R -3 c'
_cod_original_formula_sum        'C1 Ca1 O1'
_cod_database_code               1547349
loop_
_symmetry_equiv_pos_site_id
_symmetry_equiv_pos_as_xyz
1 x,y,z
2 -y,x-y,z
3 -x+y,-x,z
4 y,x,-z+1/2
5 x-y,-y,-z+1/2
6 -x,-x+y,-z+1/2
7 -x,-y,-z
8 y,-x+y,-z
9 x-y,x,-z
10 -y,-x,z+1/2
11 -x+y,y,z+1/2
12 x,x-y,z+1/2
13 x+2/3,y+1/3,z+1/3
14 -y+2/3,x-y+1/3,z+1/3
15 -x+y+2/3,-x+1/3,z+1/3
16 y+2/3,x+1/3,-z+5/6
17 x-y+2/3,-y+1/3,-z+5/6
18 -x+2/3,-x+y+1/3,-z+5/6
19 -x+2/3,-y+1/3,-z+1/3
20 y+2/3,-x+y+1/3,-z+1/3
21 x-y+2/3,x+1/3,-z+1/3
22 -y+2/3,-x+1/3,z+5/6
23 -x+y+2/3,y+1/3,z+5/6
24 x+2/3,x-y+1/3,z+5/6
25 x+1/3,y+2/3,z+2/3
26 -y+1/3,x-y+2/3,z+2/3
27 -x+y+1/3,-x+2/3,z+2/3
28 y+1/3,x+2/3,-z+1/6
29 x-y+1/3,-y+2/3,-z+1/6
30 -x+1/3,-x+y+2/3,-z+1/6
31 -x+1/3,-y+2/3,-z+2/3
32 y+1/3,-x+y+2/3,-z+2/3
33 x-y+1/3,x+2/3,-z+2/3
34 -y+1/3,-x+2/3,z+1/6
35 -x+y+1/3,y+2/3,z+1/6
36 x+1/3,x-y+2/3,z+1/6
loop_
_atom_site_label
_atom_site_type_symbol
_atom_site_fract_x
_atom_site_fract_y
_atom_site_fract_z
_atom_site_adp_type
_atom_site_U_iso_or_equiv
_atom_site_site_symmetry_multiplicity
_atom_site_occupancy
_atom_site_calc_flag
_atom_site_refinement_flags
_atom_site_disorder_assembly
_atom_site_disorder_group
Ca1 Ca 0 0 0 Uani 0.01234(13) 6 1 d . . .
C1 C 0 0 0.25 Uani 0.0118(4) 6 1 d . . .
O1 O 0.2558(3) 0 0.25 Uani 0.0192(3) 18 1 d . . .
loop_
_atom_site_aniso_label
_atom_site_aniso_type_symbol
_atom_site_aniso_U_11
_atom_site_aniso_U_22
_atom_site_aniso_U_33
_atom_site_aniso_U_12
_atom_site_aniso_U_13
_atom_site_aniso_U_23
Ca1 Ca 0.01178(17) 0.01178(17) 0.0135(2) 0.00589(9) 0 0
C1 C 0.0112(5) 0.0112(5) 0.0130(7) 0.0056(2) 0 0
O1 O 0.0133(3) 0.0240(4) 0.0238(3) 0.0120(2) -0.00408(14) -0.0082(3)
loop_
_atom_type_symbol
_atom_type_scat_dispersion_real
_atom_type_scat_dispersion_imag
_atom_type_scat_source
C 0.0033 0.0016 'International Tables Vol C tables 4.2.6.8 and 6.1.1.1'
Ca 0.2262 0.3064 'International Tables Vol C tables 4.2.6.8 and 6.1.1.1'
O 0.0106 0.0060 'International Tables Vol C tables 4.2.6.8 and 6.1.1.1'
loop_
_geom_bond_atom_site_label_1
_geom_bond_atom_site_label_2
_geom_bond_site_symmetry_1
_geom_bond_site_symmetry_2
_geom_bond_distance
Ca1 Ca1 . 16_444 4.04605(7)
Ca1 Ca1 . 16_454 4.04605(7)
Ca1 Ca1 . 16_554 4.04605(7)
Ca1 Ca1 . 28_445 4.04605(7)
Ca1 Ca1 . 28_545 4.04605(7)
Ca1 Ca1 . 28_555 4.04605(7)
Ca1 C1 . 25_444 3.21056(2)
Ca1 C1 . 25_544 3.21056(2)
Ca1 C1 . 25_554 3.21056(2)
Ca1 C1 . 19_445 3.21056(2)
Ca1 C1 . 19_455 3.21056(2)
Ca1 C1 . 19_555 3.21056(2)
Ca1 O1 . 25_444 2.3611(7)
Ca1 O1 . 26_544 2.3611(7)
Ca1 O1 . 27_554 2.3611(12)
Ca1 O1 . 19_555 2.3611(7)
Ca1 O1 . 20_455 2.3611(7)
Ca1 O1 . 21_445 2.3611(12)
C1 O1 . . 1.2756(14)
C1 O1 . 2_555 1.2756(14)
C1 O1 . 3_555 1.2756(10)
loop_
_refln_index_h
_refln_index_k
_refln_index_l
_refln_F_squared_calc
_refln_F_squared_meas
_refln_F_squared_sigma
_refln_observed_status
-1 2 0 4837.80 4604.22 29.06 o
0 3 0 8345.76 8906.87 65.67 o
-2 4 0 2403.69 2434.76 19.62 o
-1 5 0 2713.93 2685.55 17.37 o
-3 6 0 1038.85 1082.16 11.92 o
0 6 0 606.51 590.94 8.24 o
-2 7 0 787.06 783.70 12.63 o
-4 8 0 1412.98 1534.94 35.62 o
-2 3 1 1645.31 1802.24 9.19 o
-1 4 1 10.42 10.14 0.55 o
-3 5 1 455.92 432.26 3.88 o
-5 6 1 188.02 182.96 2.95 o
-2 6 1 9.71 11.08 0.93 o
-4 7 1 8.95 11.86 1.15 o
-1 7 1 54.11 53.37 3.70 o
0 1 2 1120.31 1225.84 8.93 o
-2 2 2 7981.93 8944.72 60.27 o
-1 3 2 4748.21 4857.29 23.58 o
-3 4 2 537.22 548.99 4.19 o
0 4 2 3.15 5.05 0.88 o
-5 5 2 609.37 606.41 7.74 o
-2 5 2 1796.38 1814.96 11.62 o
-4 6 2 1026.63 1027.30 8.13 o
-1 6 2 1033.31 1004.09 8.15 o
-6 7 2 454.53 498.50 11.20 o
-3 7 2 174.79 170.95 3.26 o
-1 2 3 3748.66 4230.57 18.90 o
-2 4 3 20.64 20.27 0.73 o
-4 5 3 1.65 1.74 0.57 o
-1 5 3 0.00 0.22 0.53 <
-3 6 3 103.57 98.09 2.07 o
-5 7 3 120.43 130.77 5.38 o
-2 7 3 102.79 101.24 4.78 o
-4 8 3 2.67 -0.44 1.70 <
-1 1 4 21529.50 20705.00 131.30 o
0 2 4 4078.44 3993.87 24.99 o
-2 3 4 3098.26 3205.96 15.41 o
-4 4 4 6955.87 6980.33 63.32 o
-1 4 4 5015.74 4940.43 25.91 o
-3 5 4 1389.51 1379.65 9.68 o
0 5 4 1872.85 1814.84 17.83 o
-5 6 4 696.51 702.59 7.14 o
-2 6 4 877.12 866.05 7.12 o
-4 7 4 1532.55 1551.78 18.43 o
-1 7 4 641.27 635.37 13.02 o
-1 3 5 1311.04 1334.14 7.45 o
-3 4 5 22.93 21.38 0.75 o
-2 5 5 353.60 335.20 3.26 o
-4 6 5 9.10 10.12 1.12 o
-1 6 5 170.76 176.37 3.09 o
-6 7 5 45.98 52.36 3.75 o
-3 7 5 4.35 3.26 1.30 <
0 0 6 1383.47 1789.71 24.83 o
-1 2 6 6811.26 6905.85 32.79 o
-3 3 6 632.73 621.35 6.24 o
0 3 6 530.57 528.54 5.11 o
-2 4 6 2261.82 2257.57 13.31 o
-4 5 6 472.45 476.78 5.09 o
-1 5 6 528.95 517.53 4.72 o
-6 6 6 841.50 846.98 22.04 o
-3 6 6 954.90 945.79 8.57 o
0 6 6 674.46 692.43 14.13 o
-5 7 6 436.75 462.58 15.54 o
-2 7 6 486.52 522.33 16.22 o
-2 3 7 914.94 950.51 5.31 o
-1 4 7 0.91 2.40 0.48 o
-3 5 7 368.22 352.72 3.83 o
-5 6 7 150.74 156.07 3.00 o
-2 6 7 7.46 8.29 0.97 o
-4 7 7 11.08 16.88 2.47 o
-1 7 7 48.25 49.85 3.66 o
0 1 8 12418.30 12476.90 95.58 o
-2 2 8 2561.51 2536.38 20.37 o
-1 3 8 2552.98 2567.93 12.10 o
-3 4 8 3990.71 3951.35 22.66 o
0 4 8 5403.31 5283.57 50.16 o
-5 5 8 1478.89 1437.92 16.77 o
-2 5 8 1096.16 1087.24 7.67 o
-4 6 8 905.74 905.21 9.19 o
-1 6 8 662.30 639.18 7.16 o
-6 7 8 529.89 527.62 11.83 o
-3 7 8 1249.14 1279.71 21.27 o
-1 2 9 1453.32 1452.15 8.20 o
-2 4 9 12.07 10.25 0.66 o
-4 5 9 3.83 3.26 0.75 o
-1 5 9 1.24 2.45 0.75 o
-3 6 9 73.82 74.11 2.25 o
-5 7 9 103.93 110.89 7.07 o
-2 7 9 64.57 68.82 5.91 o
-1 1 10 1063.35 998.57 8.24 o
0 2 10 3222.28 3189.53 23.48 o
-2 3 10 2572.95 2463.69 12.74 o
-4 4 10 16.82 16.42 1.48 o
-1 4 10 440.20 434.46 4.21 o
-3 5 10 1107.12 1074.63 9.08 o
0 5 10 396.03 379.80 7.65 o
-5 6 10 789.22 795.14 9.15 o
-2 6 10 854.01 840.81 7.96 o
-4 7 10 117.79 120.96 7.67 o
-1 3 11 556.05 543.24 3.92 o
-3 4 11 22.28 20.03 0.90 o
-2 5 11 183.60 179.87 2.67 o
-4 6 11 6.37 7.05 1.26 o
-1 6 11 115.79 113.89 3.94 o
-3 7 11 1.01 2.05 1.83 <
0 0 12 13890.90 12913.90 198.76 o
-1 2 12 2008.57 2005.97 10.18 o
-3 3 12 3431.38 3480.59 26.85 o
0 3 12 3757.87 3765.15 31.81 o
-2 4 12 1391.82 1361.02 8.55 o
-4 5 12 1711.93 1667.66 14.17 o
-1 5 12 1559.31 1539.12 13.05 o
-6 6 12 344.23 353.09 13.05 o
-3 6 12 724.63 736.16 8.60 o
0 6 12 548.11 575.24 17.43 o
-5 7 12 582.65 587.32 18.56 o
-2 7 12 495.70 488.57 11.11 o
-2 3 13 312.79 303.88 2.62 o
-1 4 13 0.26 0.46 0.53 <
-3 5 13 209.74 202.81 2.98 o
-5 6 13 92.05 89.80 4.52 o
-2 6 13 4.34 2.40 1.34 <
-4 7 13 9.24 12.25 3.66 o
0 1 14 666.22 613.13 6.04 o
-2 2 14 2208.48 2180.03 16.07 o
-1 3 14 1420.43 1391.97 8.95 o
-3 4 14 312.77 306.11 3.31 o
0 4 14 34.83 31.93 1.98 o
-5 5 14 394.80 369.93 7.82 o
-2 5 14 922.83 926.55 8.31 o
-4 6 14 475.23 458.64 15.07 o
-1 6 14 529.68 525.44 11.48 o
-1 2 15 398.68 395.32 3.22 o
-2 4 15 5.37 4.72 0.68 o
-4 5 15 3.74 4.43 1.12 o
-1 5 15 2.72 3.50 1.01 o
-3 6 15 40.54 38.54 3.35 o
-1 1 16 3245.09 3155.16 24.23 o
0 2 16 1483.90 1455.17 12.39 o
-2 3 16 1153.62 1128.79 7.63 o
-4 4 16 2557.61 2486.43 30.07 o
-1 4 16 1812.63 1811.82 11.73 o
-3 5 16 773.68 809.13 8.18 o
0 5 16 979.08 1015.50 25.30 o
-5 6 16 379.71 362.92 9.30 o
-2 6 16 428.98 433.34 8.46 o
-1 3 17 191.67 191.79 2.80 o
-3 4 17 14.60 14.83 1.12 o
-2 5 17 74.55 70.45 2.40 o
-4 6 17 3.61 4.45 2.80 <
0 0 18 33.16 33.32 2.34 o
-1 2 18 1208.09 1205.60 7.74 o
-3 3 18 312.93 304.17 5.36 o
0 3 18 234.03 221.48 4.50 o
-2 4 18 704.35 707.66 7.18 o
-4 5 18 208.41 203.23 6.59 o
-1 5 18 266.03 269.72 6.39 o
-3 6 18 382.66 412.07 10.42 o
-2 3 19 95.61 91.39 1.85 o
-1 4 19 1.05 2.62 0.86 o
-3 5 19 96.75 100.32 3.90 o
0 1 20 1930.23 1876.61 15.91 o
-2 2 20 771.53 775.46 8.11 o
-1 3 20 876.20 887.07 7.52 o
-3 4 20 1215.93 1243.76 13.11 o
0 4 20 1562.56 1592.75 25.32 o
-2 5 20 439.46 455.62 8.93 o
-1 2 21 114.00 112.02 1.87 o
-2 4 21 2.19 4.52 1.23 o
-1 1 22 322.87 322.37 4.65 o
0 2 22 554.60 571.54 6.79 o
-2 3 22 569.02 594.02 6.15 o
-4 4 22 35.47 26.36 4.58 o
-1 4 22 181.96 207.42 5.05 o
-1 3 23 64.23 62.85 2.91 o
-3 4 23 7.69 11.08 2.09 o
0 0 24 1773.70 1757.38 27.20 o
-1 2 24 576.95 567.60 6.88 o
-3 3 24 800.84 786.59 15.12 o
0 3 24 906.57 992.59 18.45 o
-2 3 25 28.10 23.73 1.90 o
0 1 26 181.19 199.95 5.44 o
-2 2 26 408.52 432.06 8.53 o
loop_
_jana_atom_site_adp_c_label
_jana_atom_site_adp_c_type_symbol
_jana_atom_site_adp_c_111
_jana_atom_site_adp_c_112
_jana_atom_site_adp_c_113
_jana_atom_site_adp_c_122
_jana_atom_site_adp_c_123
_jana_atom_site_adp_c_133
_jana_atom_site_adp_c_222
_jana_atom_site_adp_c_223
_jana_atom_site_adp_c_233
_jana_atom_site_adp_c_333
O1 O -0.007(2) 0.0012(17) 0.0005(3) 0.0012(17) 0.0005(3) -0.00011(8) 0 0 0 0

#------------------------------------------------------------------------------
#$Date: 2023-12-06 13:08:03 +0000 (Wed, 06 Dec 2023) $
#$Revision: 288072 $
#$URL: svn://www.crystallography.net/cod/cif/1/54/73/1547350.cif $
#------------------------------------------------------------------------------
#
# This file is available in the Crystallography Open Database (COD),
# http://www.crystallography.net/
#
# All data on this site have been placed in the public domain by the
# contributors.
#
data_1547350
loop_
_publ_author_name
'Nobuo Ishizawa'
'Hayato Setoguchi'
'Kazumichi Yanagisawa'
_publ_section_title
;
 Structural evolution of calcite at high temperatures: Phase V unveiled
;
_journal_name_full               'Scientific Reports'
_journal_page_first              2832
_journal_paper_doi               10.1038/srep02832
_journal_volume                  3
_journal_year                    2013
_chemical_absolute_configuration .
_chemical_formula_sum            'C Ca O3'
_chemical_formula_weight         100.1
_space_group_IT_number           167
_symmetry_cell_setting           trigonal
_symmetry_Int_Tables_number      167
_symmetry_space_group_name_Hall  '-R 3 2"c'
_symmetry_space_group_name_H-M   'R -3 c :H'
_cell_angle_alpha                90
_cell_angle_beta                 90
_cell_angle_gamma                120
_cell_formula_units_Z            6
_cell_length_a                   4.9876
_cell_length_b                   4.9876
_cell_length_c                   17.0575(5)
_cell_measurement_temperature    295
_cell_volume                     367.476(11)
_diffrn_ambient_temperature      295
_diffrn_measured_fraction_theta_full 1
_diffrn_measured_fraction_theta_max 1
_diffrn_measurement_device       'four-cycle diffractometer'
_diffrn_measurement_device_type  'Bruker CCD'
_diffrn_radiation_monochromator  graphite
_diffrn_radiation_probe          x-ray
_diffrn_radiation_source         'X-ray tube'
_diffrn_radiation_type           'Mo K\a'
_diffrn_radiation_wavelength     0.71073
_diffrn_reflns_av_R_equivalents  0.0182
_diffrn_reflns_av_sigmaI/netI    0.0127
_diffrn_reflns_limit_h_max       6
_diffrn_reflns_limit_h_min       -5
_diffrn_reflns_limit_k_max       6
_diffrn_reflns_limit_k_min       -6
_diffrn_reflns_limit_l_max       22
_diffrn_reflns_limit_l_min       -24
_diffrn_reflns_number            737
_diffrn_reflns_theta_full        30
_diffrn_reflns_theta_max         30
_diffrn_reflns_theta_min         5.29
_exptl_absorpt_coefficient_mu    2.284
_exptl_crystal_density_diffrn    2.7128
_exptl_crystal_F_000             300
_refine_diff_density_max         0.27
_refine_diff_density_min         -0.41
_refine_ls_extinction_coef       2400(300)
_refine_ls_extinction_method
'B-C type 1 Gaussian isotropic (Becker & Coppens, 1974)'
_refine_ls_goodness_of_fit_gt    2.18
_refine_ls_goodness_of_fit_ref   2.17
_refine_ls_number_constraints    0
_refine_ls_number_parameters     15
_refine_ls_number_reflns         121
_refine_ls_number_restraints     0
_refine_ls_R_factor_all          0.0207
_refine_ls_R_factor_gt           0.0207
_refine_ls_shift/su_max          0.0162
_refine_ls_shift/su_mean         0.0044
_refine_ls_structure_factor_coef F
_refine_ls_weighting_details     w=1/(\s^2^(F)+0.0001F^2^)
_refine_ls_weighting_scheme      sigma
_refine_ls_wR_factor_gt          0.0264
_refine_ls_wR_factor_ref         0.0264
_reflns_number_gt                120
_reflns_number_total             121
_reflns_threshold_expression     I>3\s(I)
_cod_data_source_file            srep02832-s25.cif
_cod_data_source_block           295K_hs11_RT_I_anharm_in_air
_cod_depositor_comments
;
The following automatic conversions were performed:

'_diffrn_radiation_probe' value 'X-ray' changed to 'x-ray' according
to the built-in table from CIF Core dictionary named 'cif_core.dic'
version 2.4.1 from 2010-06-29.

Automatic conversion script
Id: cif_fix_values 5376 2017-05-30 11:51:03Z andrius 

The following automatic conversions were performed:

data name '_atom_site_site_symmetry_mutiplicity' was replaced with
'_atom_site_site_symmetry_multiplicity' as specified in the
replacement file 'data/replacement-values/replacement_tags.lst'.

Automatic conversion script
Id: cif_correct_tags 9268 2022-04-12 08:56:07Z antanas 
;
_cod_original_sg_symbol_Hall     '-R 3;-2"c'
_cod_original_sg_symbol_H-M      'R -3 c'
_cod_original_formula_sum        'C1 Ca1 O3'
_cod_database_code               1547350
loop_
_symmetry_equiv_pos_site_id
_symmetry_equiv_pos_as_xyz
1 x,y,z
2 -y,x-y,z
3 -x+y,-x,z
4 y,x,-z+1/2
5 x-y,-y,-z+1/2
6 -x,-x+y,-z+1/2
7 -x,-y,-z
8 y,-x+y,-z
9 x-y,x,-z
10 -y,-x,z+1/2
11 -x+y,y,z+1/2
12 x,x-y,z+1/2
13 x+2/3,y+1/3,z+1/3
14 -y+2/3,x-y+1/3,z+1/3
15 -x+y+2/3,-x+1/3,z+1/3
16 y+2/3,x+1/3,-z+5/6
17 x-y+2/3,-y+1/3,-z+5/6
18 -x+2/3,-x+y+1/3,-z+5/6
19 -x+2/3,-y+1/3,-z+1/3
20 y+2/3,-x+y+1/3,-z+1/3
21 x-y+2/3,x+1/3,-z+1/3
22 -y+2/3,-x+1/3,z+5/6
23 -x+y+2/3,y+1/3,z+5/6
24 x+2/3,x-y+1/3,z+5/6
25 x+1/3,y+2/3,z+2/3
26 -y+1/3,x-y+2/3,z+2/3
27 -x+y+1/3,-x+2/3,z+2/3
28 y+1/3,x+2/3,-z+1/6
29 x-y+1/3,-y+2/3,-z+1/6
30 -x+1/3,-x+y+2/3,-z+1/6
31 -x+1/3,-y+2/3,-z+2/3
32 y+1/3,-x+y+2/3,-z+2/3
33 x-y+1/3,x+2/3,-z+2/3
34 -y+1/3,-x+2/3,z+1/6
35 -x+y+1/3,y+2/3,z+1/6
36 x+1/3,x-y+2/3,z+1/6
loop_
_atom_site_label
_atom_site_type_symbol
_atom_site_fract_x
_atom_site_fract_y
_atom_site_fract_z
_atom_site_adp_type
_atom_site_U_iso_or_equiv
_atom_site_site_symmetry_multiplicity
_atom_site_occupancy
_atom_site_calc_flag
_atom_site_refinement_flags
_atom_site_disorder_assembly
_atom_site_disorder_group
Ca1 Ca 0 0 0 Uani 0.0116(3) 6 1 d . . .
C1 C 0 0 0.25 Uani 0.0115(7) 6 1 d . . .
O1 O 0.2550(4) 0 0.25 Uani 0.0186(4) 18 1 d . . .
loop_
_atom_site_aniso_label
_atom_site_aniso_type_symbol
_atom_site_aniso_U_11
_atom_site_aniso_U_22
_atom_site_aniso_U_33
_atom_site_aniso_U_12
_atom_site_aniso_U_13
_atom_site_aniso_U_23
Ca1 Ca 0.0117(3) 0.0117(3) 0.0112(4) 0.00587(17) 0 0
C1 C 0.0114(9) 0.0114(9) 0.0117(13) 0.0057(4) 0 0
O1 O 0.0142(5) 0.0232(6) 0.0213(6) 0.0116(3) -0.00424(15) -0.0085(3)
loop_
_atom_type_symbol
_atom_type_scat_dispersion_real
_atom_type_scat_dispersion_imag
_atom_type_scat_source
C 0.0033 0.0016 'International Tables Vol C tables 4.2.6.8 and 6.1.1.1'
Ca 0.2262 0.3064 'International Tables Vol C tables 4.2.6.8 and 6.1.1.1'
O 0.0106 0.0060 'International Tables Vol C tables 4.2.6.8 and 6.1.1.1'
loop_
_geom_bond_atom_site_label_1
_geom_bond_atom_site_label_2
_geom_bond_site_symmetry_1
_geom_bond_site_symmetry_2
_geom_bond_distance
Ca1 Ca1 . 16_444 4.04651(12)
Ca1 Ca1 . 16_454 4.04651(12)
Ca1 Ca1 . 16_554 4.04651(12)
Ca1 Ca1 . 28_445 4.04651(12)
Ca1 Ca1 . 28_545 4.04651(12)
Ca1 Ca1 . 28_555 4.04651(12)
Ca1 C1 . 25_444 3.21132(4)
Ca1 C1 . 25_544 3.21132(4)
Ca1 C1 . 25_554 3.21132(4)
Ca1 C1 . 19_445 3.21132(4)
Ca1 C1 . 19_455 3.21132(4)
Ca1 C1 . 19_555 3.21132(4)
Ca1 O1 . 25_444 2.3635(11)
Ca1 O1 . 26_544 2.3635(11)
Ca1 O1 . 27_554 2.3635(18)
Ca1 O1 . 19_555 2.3635(11)
Ca1 O1 . 20_455 2.3635(11)
Ca1 O1 . 21_445 2.3635(18)
C1 O1 . . 1.272(2)
C1 O1 . 2_555 1.272(2)
C1 O1 . 3_555 1.2720(15)
loop_
_refln_index_h
_refln_index_k
_refln_index_l
_refln_F_squared_calc
_refln_F_squared_meas
_refln_F_squared_sigma
_refln_observed_status
-1 2 0 4896.59 4461.92 80.84 o
0 3 0 8336.42 7941.01 74.46 o
-2 4 0 2370.31 2365.12 22.36 o
-1 5 0 2691.74 2570.85 24.61 o
-3 6 0 1071.74 1039.60 19.78 o
0 6 0 639.60 620.49 13.92 o
-2 3 1 1645.65 1710.49 12.88 o
-1 4 1 9.17 9.99 0.54 o
-3 5 1 441.50 417.70 5.54 o
-5 6 1 194.68 198.70 3.97 o
-2 6 1 11.83 12.38 0.98 o
0 1 2 1094.47 1198.40 18.44 o
-2 2 2 7957.41 11781.20 297.21 o
-1 3 2 4769.45 4596.71 37.65 o
-3 4 2 552.89 526.22 5.59 o
0 4 2 3.87 4.70 0.53 o
-5 5 2 624.84 596.47 10.42 o
-2 5 2 1823.77 1805.33 14.79 o
-4 6 2 1017.23 1007.04 12.35 o
-1 6 2 1030.16 1048.93 12.90 o
-1 2 3 3738.43 4179.20 48.27 o
-2 4 3 19.62 17.26 0.55 o
-4 5 3 0.69 0.78 0.29 <
-1 5 3 0.20 2.14 0.68 o
-3 6 3 100.05 98.11 2.80 o
-1 1 4 21731.30 21493.80 366.37 o
0 2 4 4138.16 3907.38 33.49 o
-2 3 4 3105.27 3028.02 23.29 o
-4 4 4 6954.05 6627.58 86.99 o
-1 4 4 5004.59 4963.76 36.20 o
-3 5 4 1386.09 1389.79 13.26 o
0 5 4 1876.42 1869.88 32.37 o
-5 6 4 707.84 692.89 8.63 o
-2 6 4 893.73 907.66 11.09 o
-1 3 5 1325.84 1361.33 8.62 o
-3 4 5 22.22 20.49 0.76 o
-2 5 5 344.27 352.40 3.70 o
-4 6 5 11.58 12.39 1.01 o
-1 6 5 178.48 186.61 4.81 o
0 0 6 1399.39 1740.92 26.71 o
-1 2 6 6847.90 7142.29 47.18 o
-3 3 6 647.24 624.09 7.25 o
0 3 6 540.86 536.06 6.44 o
-2 4 6 2326.19 2226.95 15.82 o
-4 5 6 491.39 497.22 6.92 o
-1 5 6 549.09 549.92 6.01 o
-3 6 6 944.39 965.14 11.97 o
-2 3 7 927.10 945.62 7.27 o
-1 4 7 0.51 1.31 0.21 o
-3 5 7 363.68 356.74 4.99 o
-5 6 7 158.75 157.99 3.73 o
-2 6 7 8.91 7.71 0.81 o
0 1 8 12716.70 12512.90 133.61 o
-2 2 8 2613.58 2684.77 23.85 o
-1 3 8 2596.23 2607.96 17.77 o
-3 4 8 4046.65 3923.44 29.71 o
0 4 8 5490.85 5288.64 45.37 o
-5 5 8 1485.33 1457.35 22.13 o
-2 5 8 1100.82 1136.51 10.07 o
-4 6 8 939.92 938.90 11.92 o
-1 6 8 683.12 716.38 9.24 o
-1 2 9 1485.53 1581.58 10.91 o
-2 4 9 11.85 12.58 0.55 o
-4 5 9 2.60 3.70 0.71 o
-1 5 9 2.38 3.80 0.49 o
-3 6 9 73.25 73.51 2.24 o
-1 1 10 1089.23 1051.56 9.32 o
0 2 10 3304.82 3234.17 29.40 o
-2 3 10 2671.39 2598.13 18.25 o
-4 4 10 19.48 22.50 1.76 o
-1 4 10 466.92 471.11 4.10 o
-3 5 10 1154.85 1131.53 9.88 o
0 5 10 411.54 418.08 6.90 o
-2 6 10 882.12 900.77 9.42 o
-1 3 11 582.52 580.73 4.76 o
-3 4 11 23.17 22.97 0.78 o
-2 5 11 184.35 193.80 2.91 o
-4 6 11 8.65 7.75 1.09 o
0 0 12 14511.10 13867.00 323.69 o
-1 2 12 2100.91 2071.86 13.54 o
-3 3 12 3572.63 3572.60 46.24 o
0 3 12 3922.29 3943.41 38.98 o
-2 4 12 1429.91 1452.17 11.37 o
-4 5 12 1770.77 1774.49 23.03 o
-1 5 12 1612.35 1666.30 15.50 o
-3 6 12 774.39 804.40 10.50 o
-2 3 13 328.95 333.75 3.29 o
-1 4 13 0.55 2.08 0.36 o
-3 5 13 216.64 225.73 3.23 o
0 1 14 703.03 688.22 8.94 o
-2 2 14 2359.30 2284.74 23.00 o
-1 3 14 1519.31 1489.52 11.40 o
-3 4 14 338.94 326.15 5.08 o
0 4 14 38.53 37.42 1.70 o
-2 5 14 1002.58 997.08 10.14 o
-1 2 15 428.24 418.59 4.18 o
-2 4 15 5.62 6.29 0.56 o
-4 5 15 3.01 3.43 0.80 o
-1 5 15 4.17 3.43 0.55 o
-1 1 16 3500.81 3390.19 34.26 o
0 2 16 1604.53 1557.32 18.72 o
-2 3 16 1231.87 1214.60 10.69 o
-4 4 16 2747.49 2796.88 37.83 o
-1 4 16 1938.38 1968.96 17.64 o
-3 5 16 828.22 864.92 9.97 o
-1 3 17 213.18 207.21 2.99 o
-3 4 17 16.42 16.81 1.16 o
0 0 18 36.76 37.18 3.01 o
-1 2 18 1341.54 1354.44 12.72 o
-3 3 18 350.70 353.15 7.14 o
0 3 18 260.56 271.02 5.25 o
-2 4 18 796.48 802.78 8.60 o
-2 3 19 106.92 106.22 2.22 o
-1 4 19 1.60 1.85 0.46 o
0 1 20 2173.23 2119.41 28.04 o
-2 2 20 856.11 854.78 13.68 o
-1 3 20 977.27 1002.33 10.99 o
-1 2 21 131.94 127.92 2.99 o
-1 1 22 378.79 396.06 7.64 o
0 2 22 646.96 656.80 11.60 o
0 0 24 2103.74 1988.10 47.28 o
loop_
_jana_atom_site_adp_c_label
_jana_atom_site_adp_c_type_symbol
_jana_atom_site_adp_c_111
_jana_atom_site_adp_c_112
_jana_atom_site_adp_c_113
_jana_atom_site_adp_c_122
_jana_atom_site_adp_c_123
_jana_atom_site_adp_c_133
_jana_atom_site_adp_c_222
_jana_atom_site_adp_c_223
_jana_atom_site_adp_c_233
_jana_atom_site_adp_c_333
O1 O -0.017(4) 0.000(3) 0.0004(3) 0.000(3) 0.0004(3) -0.00013(11) 0 0 0 0

#------------------------------------------------------------------------------
#$Date: 2023-12-06 13:08:03 +0000 (Wed, 06 Dec 2023) $
#$Revision: 288072 $
#$URL: svn://www.crystallography.net/cod/cif/1/54/73/1547351.cif $
#------------------------------------------------------------------------------
#
# This file is available in the Crystallography Open Database (COD),
# http://www.crystallography.net/
#
# All data on this site have been placed in the public domain by the
# contributors.
#
data_1547351
loop_
_publ_author_name
'Nobuo Ishizawa'
'Hayato Setoguchi'
'Kazumichi Yanagisawa'
_publ_section_title
;
 Structural evolution of calcite at high temperatures: Phase V unveiled
;
_journal_name_full               'Scientific Reports'
_journal_page_first              2832
_journal_paper_doi               10.1038/srep02832
_journal_volume                  3
_journal_year                    2013
_chemical_absolute_configuration .
_chemical_formula_sum            'C Ca O3'
_chemical_formula_weight         100.1
_space_group_IT_number           167
_symmetry_cell_setting           trigonal
_symmetry_Int_Tables_number      167
_symmetry_space_group_name_Hall  '-R 3 2"c'
_symmetry_space_group_name_H-M   'R -3 c :H'
_cell_angle_alpha                90
_cell_angle_beta                 90
_cell_angle_gamma                120
_cell_formula_units_Z            6
_cell_length_a                   4.98040(10)
_cell_length_b                   4.98040(10)
_cell_length_c                   17.1932(5)
_cell_measurement_temperature    580
_cell_volume                     369.331(15)
_diffrn_ambient_temperature      580
_diffrn_measured_fraction_theta_full 1
_diffrn_measured_fraction_theta_max 1
_diffrn_measurement_device       'four-cycle diffractometer'
_diffrn_measurement_device_type  'Bruker CCD'
_diffrn_radiation_monochromator  graphite
_diffrn_radiation_probe          x-ray
_diffrn_radiation_source         'X-ray tube'
_diffrn_radiation_type           'Mo K\a'
_diffrn_radiation_wavelength     0.71069
_diffrn_reflns_av_R_equivalents  0.0198
_diffrn_reflns_av_sigmaI/netI    0.0141
_diffrn_reflns_limit_h_max       7
_diffrn_reflns_limit_h_min       -5
_diffrn_reflns_limit_k_max       7
_diffrn_reflns_limit_k_min       -6
_diffrn_reflns_limit_l_max       22
_diffrn_reflns_limit_l_min       -24
_diffrn_reflns_number            780
_diffrn_reflns_theta_full        30.28
_diffrn_reflns_theta_max         30.28
_diffrn_reflns_theta_min         5.29
_exptl_absorpt_coefficient_mu    2.273
_exptl_crystal_density_diffrn    2.6991
_exptl_crystal_F_000             300
_refine_diff_density_max         0.46
_refine_diff_density_min         -0.59
_refine_ls_extinction_coef       4700(500)
_refine_ls_extinction_method
'B-C type 1 Gaussian isotropic (Becker & Coppens, 1974)'
_refine_ls_goodness_of_fit_gt    2.39
_refine_ls_goodness_of_fit_ref   2.39
_refine_ls_number_constraints    0
_refine_ls_number_parameters     15
_refine_ls_number_reflns         127
_refine_ls_number_restraints     0
_refine_ls_R_factor_all          0.0277
_refine_ls_R_factor_gt           0.0277
_refine_ls_shift/su_max          0.0198
_refine_ls_shift/su_mean         0.0063
_refine_ls_structure_factor_coef F
_refine_ls_weighting_details     w=1/(\s^2^(F)+0.0001F^2^)
_refine_ls_weighting_scheme      sigma
_refine_ls_wR_factor_gt          0.0308
_refine_ls_wR_factor_ref         0.0308
_reflns_number_gt                127
_reflns_number_total             127
_reflns_threshold_expression     I>3\s(I)
_cod_data_source_file            srep02832-s26.cif
_cod_data_source_block           580K_hs11_h300_I_anharm_in_air
_cod_depositor_comments
;
The following automatic conversions were performed:

'_diffrn_radiation_probe' value 'X-ray' changed to 'x-ray' according
to the built-in table from CIF Core dictionary named 'cif_core.dic'
version 2.4.1 from 2010-06-29.

Automatic conversion script
Id: cif_fix_values 5376 2017-05-30 11:51:03Z andrius 

The following automatic conversions were performed:

data name '_atom_site_site_symmetry_mutiplicity' was replaced with
'_atom_site_site_symmetry_multiplicity' as specified in the
replacement file 'data/replacement-values/replacement_tags.lst'.

Automatic conversion script
Id: cif_correct_tags 9268 2022-04-12 08:56:07Z antanas 
;
_cod_original_sg_symbol_Hall     '-R 3;-2"c'
_cod_original_sg_symbol_H-M      'R -3 c'
_cod_original_formula_sum        'C1 Ca1 O3'
_cod_database_code               1547351
loop_
_symmetry_equiv_pos_site_id
_symmetry_equiv_pos_as_xyz
1 x,y,z
2 -y,x-y,z
3 -x+y,-x,z
4 y,x,-z+1/2
5 x-y,-y,-z+1/2
6 -x,-x+y,-z+1/2
7 -x,-y,-z
8 y,-x+y,-z
9 x-y,x,-z
10 -y,-x,z+1/2
11 -x+y,y,z+1/2
12 x,x-y,z+1/2
13 x+2/3,y+1/3,z+1/3
14 -y+2/3,x-y+1/3,z+1/3
15 -x+y+2/3,-x+1/3,z+1/3
16 y+2/3,x+1/3,-z+5/6
17 x-y+2/3,-y+1/3,-z+5/6
18 -x+2/3,-x+y+1/3,-z+5/6
19 -x+2/3,-y+1/3,-z+1/3
20 y+2/3,-x+y+1/3,-z+1/3
21 x-y+2/3,x+1/3,-z+1/3
22 -y+2/3,-x+1/3,z+5/6
23 -x+y+2/3,y+1/3,z+5/6
24 x+2/3,x-y+1/3,z+5/6
25 x+1/3,y+2/3,z+2/3
26 -y+1/3,x-y+2/3,z+2/3
27 -x+y+1/3,-x+2/3,z+2/3
28 y+1/3,x+2/3,-z+1/6
29 x-y+1/3,-y+2/3,-z+1/6
30 -x+1/3,-x+y+2/3,-z+1/6
31 -x+1/3,-y+2/3,-z+2/3
32 y+1/3,-x+y+2/3,-z+2/3
33 x-y+1/3,x+2/3,-z+2/3
34 -y+1/3,-x+2/3,z+1/6
35 -x+y+1/3,y+2/3,z+1/6
36 x+1/3,x-y+2/3,z+1/6
loop_
_atom_site_label
_atom_site_type_symbol
_atom_site_fract_x
_atom_site_fract_y
_atom_site_fract_z
_atom_site_adp_type
_atom_site_U_iso_or_equiv
_atom_site_site_symmetry_multiplicity
_atom_site_occupancy
_atom_site_calc_flag
_atom_site_refinement_flags
_atom_site_disorder_assembly
_atom_site_disorder_group
Ca1 Ca 0 0 0 Uani 0.0210(3) 6 1 d . . .
C1 C 0 0 0.25 Uani 0.0182(8) 6 1 d . . .
O1 O 0.2528(5) 0 0.25 Uani 0.0358(5) 18 1 d . . .
loop_
_atom_site_aniso_label
_atom_site_aniso_type_symbol
_atom_site_aniso_U_11
_atom_site_aniso_U_22
_atom_site_aniso_U_33
_atom_site_aniso_U_12
_atom_site_aniso_U_13
_atom_site_aniso_U_23
Ca1 Ca 0.0214(4) 0.0214(4) 0.0201(4) 0.01068(19) 0 0
C1 C 0.0176(9) 0.0176(9) 0.0195(15) 0.0088(4) 0 0
O1 O 0.0245(5) 0.0477(8) 0.0430(7) 0.0238(4) -0.0093(3) -0.0187(5)
loop_
_atom_type_symbol
_atom_type_scat_dispersion_real
_atom_type_scat_dispersion_imag
_atom_type_scat_source
C 0.0033 0.0016 'International Tables Vol C tables 4.2.6.8 and 6.1.1.1'
Ca 0.2262 0.3064 'International Tables Vol C tables 4.2.6.8 and 6.1.1.1'
O 0.0106 0.0060 'International Tables Vol C tables 4.2.6.8 and 6.1.1.1'
loop_
_geom_bond_atom_site_label_1
_geom_bond_atom_site_label_2
_geom_bond_site_symmetry_1
_geom_bond_site_symmetry_2
_geom_bond_distance
Ca1 Ca1 . 16_444 4.05948(16)
Ca1 Ca1 . 16_454 4.05948(12)
Ca1 Ca1 . 16_554 4.05948(16)
Ca1 Ca1 . 28_445 4.05948(16)
Ca1 Ca1 . 28_545 4.05948(12)
Ca1 Ca1 . 28_555 4.05948(16)
Ca1 C1 . 25_444 3.21262(15)
Ca1 C1 . 25_544 3.21262(6)
Ca1 C1 . 25_554 3.21262(15)
Ca1 C1 . 19_445 3.21262(15)
Ca1 C1 . 19_455 3.21262(6)
Ca1 C1 . 19_555 3.21262(15)
Ca1 O1 . 25_444 2.3738(13)
Ca1 O1 . 26_544 2.3738(13)
Ca1 O1 . 27_554 2.374(2)
Ca1 O1 . 19_555 2.3738(13)
Ca1 O1 . 20_455 2.3738(13)
Ca1 O1 . 21_445 2.374(2)
C1 O1 . . 1.259(2)
C1 O1 . 2_555 1.259(2)
C1 O1 . 3_555 1.2593(18)
loop_
_refln_index_h
_refln_index_k
_refln_index_l
_refln_F_squared_calc
_refln_F_squared_meas
_refln_F_squared_sigma
_refln_observed_status
-1 2 0 4660.12 4019.12 99.52 o
0 3 0 6449.30 6292.77 67.37 o
-2 4 0 2229.86 2222.40 26.76 o
-1 5 0 1776.48 1702.20 17.59 o
-3 6 0 596.38 590.70 12.37 o
0 6 0 281.28 292.26 7.54 o
-2 3 1 1353.27 1427.82 14.74 o
-1 4 1 8.10 8.20 0.41 o
-3 5 1 292.21 271.41 4.52 o
-5 6 1 63.95 67.76 1.84 o
-2 6 1 4.30 5.08 0.56 o
-4 7 1 15.16 20.95 1.38 o
0 1 2 1014.43 972.12 27.32 o
-2 2 2 7673.73 9538.17 154.53 o
-1 3 2 3980.45 4083.48 34.29 o
-3 4 2 388.96 374.44 4.42 o
0 4 2 10.35 11.01 0.70 o
-5 5 2 397.86 388.53 7.12 o
-2 5 2 1065.16 1059.96 10.91 o
-4 6 2 548.32 554.52 7.46 o
-1 6 2 526.92 519.18 7.11 o
-3 7 2 91.05 92.30 2.63 o
-1 2 3 3137.93 3710.91 54.62 o
-2 4 3 8.49 7.82 0.39 o
-4 5 3 11.57 9.41 0.58 o
-1 5 3 2.13 4.27 0.42 o
-3 6 3 31.31 29.62 1.37 o
-1 1 4 20769.90 14458.60 404.40 o
0 2 4 3887.20 3918.73 45.69 o
-2 3 4 2637.18 2799.43 25.09 o
-4 4 4 4729.12 4811.58 67.19 o
-1 4 4 3800.22 3852.76 34.81 o
-3 5 4 1101.38 1061.97 12.25 o
0 5 4 1073.81 1051.10 19.11 o
-5 6 4 369.21 354.78 4.89 o
-2 6 4 494.45 496.79 6.81 o
-1 3 5 1072.64 1100.38 9.15 o
-3 4 5 31.46 30.82 0.84 o
-2 5 5 193.64 184.43 2.52 o
-4 6 5 4.09 3.30 0.49 o
-1 6 5 54.38 58.73 1.69 o
0 0 6 1151.57 1475.12 59.34 o
-1 2 6 6024.52 6742.52 78.16 o
-3 3 6 686.94 649.77 8.38 o
0 3 6 492.82 466.96 5.75 o
-2 4 6 1460.00 1451.78 13.49 o
-4 5 6 278.64 265.60 4.09 o
-1 5 6 354.19 356.36 4.52 o
-3 6 6 526.43 534.77 7.26 o
-2 3 7 641.34 642.77 6.43 o
-1 4 7 0.27 0.43 0.14 o
-3 5 7 234.27 230.41 3.63 o
-5 6 7 50.89 49.26 1.64 o
-2 6 7 3.10 3.03 0.48 o
0 1 8 11657.00 14141.60 173.21 o
-2 2 8 2034.03 2026.60 22.81 o
-1 3 8 2288.14 2330.96 18.63 o
-3 4 8 2928.99 2980.09 27.47 o
0 4 8 3372.46 3415.05 41.25 o
-5 5 8 788.71 794.99 13.06 o
-2 5 8 779.68 784.49 8.11 o
-4 6 8 536.42 534.66 7.35 o
-1 6 8 365.75 368.73 5.55 o
-1 2 9 1043.78 1042.75 9.07 o
-2 4 9 4.97 5.38 0.38 o
-4 5 9 13.77 12.48 0.85 o
-1 5 9 0.40 1.17 0.31 o
-3 6 9 20.55 21.96 1.21 o
-1 1 10 1077.15 1044.85 11.04 o
0 2 10 2399.66 2337.59 26.41 o
-2 3 10 2053.46 1971.20 16.60 o
-4 4 10 23.95 24.31 1.53 o
-1 4 10 334.01 328.35 3.58 o
-3 5 10 567.36 568.93 5.85 o
0 5 10 222.56 224.29 4.26 o
-5 6 10 379.44 378.77 5.89 o
-2 6 10 439.97 460.01 5.54 o
-1 3 11 382.92 375.10 3.80 o
-3 4 11 31.05 29.87 0.78 o
-2 5 11 72.95 71.38 1.51 o
-4 6 11 2.84 2.36 0.54 o
0 0 12 11283.60 12297.10 208.06 o
-1 2 12 1823.75 1776.48 13.58 o
-3 3 12 2251.78 2251.40 32.23 o
0 3 12 2698.00 2753.13 35.06 o
-2 4 12 1099.62 1102.04 9.73 o
-4 5 12 1019.43 1018.39 14.05 o
-1 5 12 849.59 854.72 9.07 o
-3 6 12 389.80 390.63 5.87 o
-2 3 13 156.32 156.80 1.99 o
-1 4 13 3.75 4.18 0.39 o
-3 5 13 111.83 110.27 1.87 o
0 1 14 591.77 558.96 6.87 o
-2 2 14 1789.86 1713.20 19.10 o
-1 3 14 919.58 910.48 8.31 o
-3 4 14 210.45 205.64 3.13 o
0 4 14 54.41 59.90 1.90 o
-5 5 14 221.60 209.65 5.00 o
-2 5 14 492.19 510.56 5.94 o
-1 2 15 207.77 198.94 2.31 o
-2 4 15 2.10 2.16 0.32 o
-4 5 15 7.38 6.72 0.81 o
-1 5 15 2.48 2.41 0.42 o
-1 1 16 2391.76 2356.28 26.00 o
0 2 16 1308.36 1296.87 16.79 o
-2 3 16 835.96 841.85 8.10 o
-4 4 16 1350.76 1413.83 21.54 o
-1 4 16 1055.87 1087.49 11.15 o
-3 5 16 499.84 520.49 6.63 o
-1 3 17 93.40 93.91 1.66 o
-3 4 17 15.78 17.26 1.08 o
-2 5 17 18.31 19.13 1.02 o
0 0 18 95.61 87.41 4.32 o
-1 2 18 775.82 743.24 7.82 o
-3 3 18 253.37 256.07 5.39 o
0 3 18 163.65 166.82 3.52 o
-2 4 18 369.59 376.53 4.73 o
-2 3 19 28.16 26.37 0.95 o
-1 4 19 3.20 2.22 0.40 o
0 1 20 1279.01 1240.40 16.35 o
-2 2 20 525.13 520.27 9.13 o
-1 3 20 613.64 603.08 7.39 o
-1 2 21 36.34 36.83 1.35 o
-1 1 22 250.93 257.42 5.50 o
0 2 22 272.35 275.84 5.84 o
-2 3 22 301.41 332.49 5.29 o
0 0 24 863.26 828.96 23.93 o
loop_
_jana_atom_site_adp_c_label
_jana_atom_site_adp_c_type_symbol
_jana_atom_site_adp_c_111
_jana_atom_site_adp_c_112
_jana_atom_site_adp_c_113
_jana_atom_site_adp_c_122
_jana_atom_site_adp_c_123
_jana_atom_site_adp_c_133
_jana_atom_site_adp_c_222
_jana_atom_site_adp_c_223
_jana_atom_site_adp_c_233
_jana_atom_site_adp_c_333
O1 O -0.023(5) -0.012(4) 0.0016(5) -0.012(4) 0.0016(5) -0.00047(15) 0 0 0 0

#------------------------------------------------------------------------------
#$Date: 2023-12-06 13:08:03 +0000 (Wed, 06 Dec 2023) $
#$Revision: 288072 $
#$URL: svn://www.crystallography.net/cod/cif/1/54/73/1547352.cif $
#------------------------------------------------------------------------------
#
# This file is available in the Crystallography Open Database (COD),
# http://www.crystallography.net/
#
# All data on this site have been placed in the public domain by the
# contributors.
#
data_1547352
loop_
_publ_author_name
'Nobuo Ishizawa'
'Hayato Setoguchi'
'Kazumichi Yanagisawa'
_publ_section_title
;
 Structural evolution of calcite at high temperatures: Phase V unveiled
;
_journal_name_full               'Scientific Reports'
_journal_page_first              2832
_journal_paper_doi               10.1038/srep02832
_journal_volume                  3
_journal_year                    2013
_chemical_absolute_configuration .
_chemical_formula_sum            'C Ca O3'
_chemical_formula_weight         100.1
_space_group_IT_number           167
_symmetry_cell_setting           trigonal
_symmetry_Int_Tables_number      167
_symmetry_space_group_name_Hall  '-R 3 2"c'
_symmetry_space_group_name_H-M   'R -3 c :H'
_cell_angle_alpha                90
_cell_angle_beta                 90
_cell_angle_gamma                120
_cell_formula_units_Z            6
_cell_length_a                   4.97800(10)
_cell_length_b                   4.97800(10)
_cell_length_c                   17.2509(5)
_cell_measurement_temperature    683
_cell_volume                     370.213(15)
_diffrn_ambient_temperature      683
_diffrn_measured_fraction_theta_full 1
_diffrn_measured_fraction_theta_max 1
_diffrn_measurement_device       'four-cycle diffractometer'
_diffrn_measurement_device_type  'Bruker CCD'
_diffrn_radiation_monochromator  graphite
_diffrn_radiation_probe          x-ray
_diffrn_radiation_source         'X-ray tube'
_diffrn_radiation_type           'Mo K\a'
_diffrn_radiation_wavelength     0.71069
_diffrn_reflns_av_R_equivalents  0.0204
_diffrn_reflns_av_sigmaI/netI    0.013
_diffrn_reflns_limit_h_max       7
_diffrn_reflns_limit_h_min       -5
_diffrn_reflns_limit_k_max       7
_diffrn_reflns_limit_k_min       -6
_diffrn_reflns_limit_l_max       22
_diffrn_reflns_limit_l_min       -24
_diffrn_reflns_number            784
_diffrn_reflns_theta_full        30.2
_diffrn_reflns_theta_max         30.2
_diffrn_reflns_theta_min         5.29
_exptl_absorpt_coefficient_mu    2.267
_exptl_crystal_density_diffrn    2.6927
_exptl_crystal_F_000             300
_refine_diff_density_max         0.17
_refine_diff_density_min         -0.16
_refine_ls_extinction_coef       1200(300)
_refine_ls_extinction_method
'B-C type 1 Gaussian isotropic (Becker & Coppens, 1974)'
_refine_ls_goodness_of_fit_gt    2.16
_refine_ls_goodness_of_fit_ref   2.16
_refine_ls_number_constraints    0
_refine_ls_number_parameters     15
_refine_ls_number_reflns         127
_refine_ls_number_restraints     0
_refine_ls_R_factor_all          0.0171
_refine_ls_R_factor_gt           0.0171
_refine_ls_shift/su_max          0.0131
_refine_ls_shift/su_mean         0.0050
_refine_ls_structure_factor_coef F
_refine_ls_weighting_details     w=1/(\s^2^(F)+0.0001F^2^)
_refine_ls_weighting_scheme      sigma
_refine_ls_wR_factor_gt          0.0273
_refine_ls_wR_factor_ref         0.0273
_reflns_number_gt                127
_reflns_number_total             127
_reflns_threshold_expression     I>3\s(I)
_cod_data_source_file            srep02832-s27.cif
_cod_data_source_block           683K_hs11_h400_I_anharm_in_air
_cod_depositor_comments
;
The following automatic conversions were performed:

'_diffrn_radiation_probe' value 'X-ray' changed to 'x-ray' according
to the built-in table from CIF Core dictionary named 'cif_core.dic'
version 2.4.1 from 2010-06-29.

Automatic conversion script
Id: cif_fix_values 5376 2017-05-30 11:51:03Z andrius 

The following automatic conversions were performed:

data name '_atom_site_site_symmetry_mutiplicity' was replaced with
'_atom_site_site_symmetry_multiplicity' as specified in the
replacement file 'data/replacement-values/replacement_tags.lst'.

Automatic conversion script
Id: cif_correct_tags 9268 2022-04-12 08:56:07Z antanas 
;
_cod_original_sg_symbol_Hall     '-R 3;-2"c'
_cod_original_sg_symbol_H-M      'R -3 c'
_cod_original_formula_sum        'C1 Ca1 O3'
_cod_database_code               1547352
loop_
_symmetry_equiv_pos_site_id
_symmetry_equiv_pos_as_xyz
1 x,y,z
2 -y,x-y,z
3 -x+y,-x,z
4 y,x,-z+1/2
5 x-y,-y,-z+1/2
6 -x,-x+y,-z+1/2
7 -x,-y,-z
8 y,-x+y,-z
9 x-y,x,-z
10 -y,-x,z+1/2
11 -x+y,y,z+1/2
12 x,x-y,z+1/2
13 x+2/3,y+1/3,z+1/3
14 -y+2/3,x-y+1/3,z+1/3
15 -x+y+2/3,-x+1/3,z+1/3
16 y+2/3,x+1/3,-z+5/6
17 x-y+2/3,-y+1/3,-z+5/6
18 -x+2/3,-x+y+1/3,-z+5/6
19 -x+2/3,-y+1/3,-z+1/3
20 y+2/3,-x+y+1/3,-z+1/3
21 x-y+2/3,x+1/3,-z+1/3
22 -y+2/3,-x+1/3,z+5/6
23 -x+y+2/3,y+1/3,z+5/6
24 x+2/3,x-y+1/3,z+5/6
25 x+1/3,y+2/3,z+2/3
26 -y+1/3,x-y+2/3,z+2/3
27 -x+y+1/3,-x+2/3,z+2/3
28 y+1/3,x+2/3,-z+1/6
29 x-y+1/3,-y+2/3,-z+1/6
30 -x+1/3,-x+y+2/3,-z+1/6
31 -x+1/3,-y+2/3,-z+2/3
32 y+1/3,-x+y+2/3,-z+2/3
33 x-y+1/3,x+2/3,-z+2/3
34 -y+1/3,-x+2/3,z+1/6
35 -x+y+1/3,y+2/3,z+1/6
36 x+1/3,x-y+2/3,z+1/6
loop_
_atom_site_label
_atom_site_type_symbol
_atom_site_fract_x
_atom_site_fract_y
_atom_site_fract_z
_atom_site_adp_type
_atom_site_U_iso_or_equiv
_atom_site_site_symmetry_multiplicity
_atom_site_occupancy
_atom_site_calc_flag
_atom_site_refinement_flags
_atom_site_disorder_assembly
_atom_site_disorder_group
Ca1 Ca 0 0 0 Uani 0.0252(2) 6 1 d . . .
C1 C 0 0 0.25 Uani 0.0218(7) 6 1 d . . .
O1 O 0.2519(5) 0 0.25 Uani 0.0436(5) 18 1 d . . .
loop_
_atom_site_aniso_label
_atom_site_aniso_type_symbol
_atom_site_aniso_U_11
_atom_site_aniso_U_22
_atom_site_aniso_U_33
_atom_site_aniso_U_12
_atom_site_aniso_U_13
_atom_site_aniso_U_23
Ca1 Ca 0.0261(3) 0.0261(3) 0.0236(4) 0.01304(16) 0 0
C1 C 0.0208(8) 0.0208(8) 0.0240(13) 0.0104(4) 0 0
O1 O 0.0306(5) 0.0585(8) 0.0511(7) 0.0293(4) -0.0115(2) -0.0230(5)
loop_
_atom_type_symbol
_atom_type_scat_dispersion_real
_atom_type_scat_dispersion_imag
_atom_type_scat_source
C 0.0033 0.0016 'International Tables Vol C tables 4.2.6.8 and 6.1.1.1'
Ca 0.2262 0.3064 'International Tables Vol C tables 4.2.6.8 and 6.1.1.1'
O 0.0106 0.0060 'International Tables Vol C tables 4.2.6.8 and 6.1.1.1'
loop_
_geom_bond_atom_site_label_1
_geom_bond_atom_site_label_2
_geom_bond_site_symmetry_1
_geom_bond_site_symmetry_2
_geom_bond_distance
Ca1 Ca1 . 16_444 4.06530(16)
Ca1 Ca1 . 16_454 4.06530(12)
Ca1 Ca1 . 16_554 4.06530(16)
Ca1 Ca1 . 28_445 4.06530(16)
Ca1 Ca1 . 28_545 4.06530(12)
Ca1 Ca1 . 28_555 4.06530(16)
Ca1 C1 . 25_444 3.21353(15)
Ca1 C1 . 25_544 3.21353(6)
Ca1 C1 . 25_554 3.21353(15)
Ca1 C1 . 19_445 3.21353(15)
Ca1 C1 . 19_455 3.21353(6)
Ca1 C1 . 19_555 3.21353(15)
Ca1 O1 . 25_444 2.3785(12)
Ca1 O1 . 26_544 2.3785(12)
Ca1 O1 . 27_554 2.3785(19)
Ca1 O1 . 19_555 2.3785(12)
Ca1 O1 . 20_455 2.3785(12)
Ca1 O1 . 21_445 2.3785(19)
C1 O1 . . 1.254(2)
C1 O1 . 2_555 1.254(2)
C1 O1 . 3_555 1.2538(16)
loop_
_refln_index_h
_refln_index_k
_refln_index_l
_refln_F_squared_calc
_refln_F_squared_meas
_refln_F_squared_sigma
_refln_observed_status
-1 2 0 4566.79 4762.51 94.03 o
0 3 0 5736.60 5848.63 57.17 o
-2 4 0 2098.71 2141.61 23.19 o
-1 5 0 1436.48 1466.90 14.49 o
-3 6 0 461.57 431.62 8.92 o
0 6 0 202.30 209.96 5.59 o
-2 3 1 1219.25 1274.33 10.49 o
-1 4 1 6.96 7.92 0.37 o
-3 5 1 229.79 222.49 3.61 o
-5 6 1 38.34 42.88 1.34 o
-2 6 1 2.95 3.19 0.44 o
-4 7 1 12.91 17.77 1.19 o
0 1 2 981.63 976.88 32.27 o
-2 2 2 7456.34 8133.61 114.98 o
-1 3 2 3641.78 3640.05 27.58 o
-3 4 2 337.53 329.72 3.56 o
0 4 2 14.87 16.09 0.67 o
-5 5 2 313.80 304.39 5.66 o
-2 5 2 829.14 830.17 7.63 o
-4 6 2 401.78 407.25 5.52 o
-1 6 2 372.76 386.80 5.37 o
-3 7 2 64.44 66.61 2.00 o
-1 2 3 2902.75 3309.94 42.60 o
-2 4 3 6.08 6.06 0.31 o
-4 5 3 13.14 11.86 0.60 o
-1 5 3 2.62 3.48 0.34 o
-3 6 3 17.74 16.28 1.02 o
-1 1 4 20364.30 18904.10 382.66 o
0 2 4 3789.57 3624.71 39.30 o
-2 3 4 2448.07 2565.32 20.23 o
-4 4 4 3912.20 3904.63 53.42 o
-1 4 4 3308.50 3357.88 26.99 o
-3 5 4 956.27 937.61 9.82 o
0 5 4 815.84 792.55 12.90 o
-5 6 4 275.63 288.60 4.04 o
-2 6 4 379.38 368.90 4.91 o
-1 3 5 957.58 974.13 7.12 o
-3 4 5 31.58 30.57 0.73 o
-2 5 5 143.52 137.96 1.74 o
-4 6 5 2.82 2.43 0.40 o
-1 6 5 32.10 33.72 1.15 o
0 0 6 1068.83 1319.58 31.30 o
-1 2 6 5704.07 5583.85 48.52 o
-3 3 6 671.93 647.19 7.22 o
0 3 6 454.95 442.64 4.84 o
-2 4 6 1200.45 1155.35 9.42 o
-4 5 6 219.24 218.48 3.35 o
-1 5 6 291.36 291.53 3.36 o
-3 6 6 386.18 384.84 5.29 o
-2 3 7 542.71 550.66 4.80 o
-1 4 7 0.58 1.22 0.15 o
-3 5 7 183.32 183.49 2.75 o
-5 6 7 31.41 33.93 1.40 o
-2 6 7 2.42 2.05 0.37 o
0 1 8 11222.10 11554.10 131.78 o
-2 2 8 1840.38 1843.58 18.17 o
-1 3 8 2152.98 2190.33 15.90 o
-3 4 8 2501.73 2444.15 20.49 o
0 4 8 2683.71 2696.73 28.81 o
-5 5 8 587.49 599.17 9.92 o
-2 5 8 648.58 653.97 5.97 o
-4 6 8 406.11 396.59 5.51 o
-1 6 8 271.50 272.46 3.87 o
-1 2 9 917.14 927.52 7.18 o
-2 4 9 4.42 3.76 0.27 o
-4 5 9 13.66 12.60 0.79 o
-1 5 9 0.39 0.87 0.23 o
-3 6 9 10.81 10.76 0.76 o
-1 1 10 1080.77 1040.48 10.78 o
0 2 10 2105.54 2037.05 20.69 o
-2 3 10 1824.86 1733.43 12.95 o
-4 4 10 24.27 24.03 1.34 o
-1 4 10 287.34 283.31 2.68 o
-3 5 10 425.64 418.33 4.02 o
0 5 10 172.49 171.21 3.12 o
-5 6 10 261.70 256.39 4.31 o
-2 6 10 309.61 320.26 3.75 o
-1 3 11 316.45 308.83 2.83 o
-3 4 11 31.39 29.90 0.67 o
-2 5 11 48.10 46.99 1.01 o
-4 6 11 2.35 1.47 0.46 o
0 0 12 10286.30 10437.00 167.04 o
-1 2 12 1693.98 1675.04 11.42 o
-3 3 12 1888.33 1869.37 24.72 o
0 3 12 2325.90 2302.49 25.81 o
-2 4 12 946.55 967.74 7.62 o
-4 5 12 772.64 745.78 10.44 o
-1 5 12 626.53 648.44 6.43 o
-3 6 12 288.77 284.74 4.22 o
-2 3 13 114.17 113.32 1.36 o
-1 4 13 3.81 3.59 0.32 o
-3 5 13 81.36 82.56 1.42 o
0 1 14 564.43 520.27 5.91 o
-2 2 14 1599.50 1576.81 15.77 o
-1 3 14 751.49 723.26 6.04 o
-3 4 14 171.51 168.63 2.43 o
0 4 14 54.59 55.82 1.59 o
-5 5 14 166.21 150.35 3.74 o
-2 5 14 369.31 362.56 4.07 o
-1 2 15 163.49 155.01 1.74 o
-2 4 15 2.36 7.92 0.53 o
-4 5 15 5.73 5.50 0.69 o
-1 5 15 2.35 1.73 0.34 o
-1 1 16 2050.46 2070.09 21.32 o
0 2 16 1178.75 1199.05 14.08 o
-2 3 16 711.12 693.78 6.13 o
-4 4 16 998.61 978.32 14.10 o
-1 4 16 813.02 820.57 7.64 o
-3 5 16 378.74 379.88 4.65 o
-1 3 17 66.75 68.50 1.22 o
-3 4 17 14.81 12.98 0.82 o
-2 5 17 10.29 9.44 0.61 o
0 0 18 112.09 110.38 4.14 o
-1 2 18 645.09 634.46 6.17 o
-3 3 18 204.78 212.05 4.20 o
0 3 18 129.63 141.10 2.78 o
-2 4 18 279.43 285.33 3.44 o
-2 3 19 16.05 17.80 0.78 o
-1 4 19 2.56 2.86 0.38 o
0 1 20 1032.87 1033.29 12.45 o
-2 2 20 427.99 424.20 7.00 o
-1 3 20 496.16 504.02 5.66 o
-1 2 21 24.05 22.22 1.01 o
-1 1 22 217.94 217.60 4.11 o
0 2 22 203.39 213.43 4.43 o
-2 3 22 221.40 243.48 3.74 o
0 0 24 624.63 619.09 15.98 o
loop_
_jana_atom_site_adp_c_label
_jana_atom_site_adp_c_type_symbol
_jana_atom_site_adp_c_111
_jana_atom_site_adp_c_112
_jana_atom_site_adp_c_113
_jana_atom_site_adp_c_122
_jana_atom_site_adp_c_123
_jana_atom_site_adp_c_133
_jana_atom_site_adp_c_222
_jana_atom_site_adp_c_223
_jana_atom_site_adp_c_233
_jana_atom_site_adp_c_333
O1 O -0.029(4) -0.018(4) 0.0026(5) -0.018(4) 0.0026(5) -0.00105(15) 0 0 0 0

#------------------------------------------------------------------------------
#$Date: 2023-12-06 13:08:03 +0000 (Wed, 06 Dec 2023) $
#$Revision: 288072 $
#$URL: svn://www.crystallography.net/cod/cif/1/54/73/1547353.cif $
#------------------------------------------------------------------------------
#
# This file is available in the Crystallography Open Database (COD),
# http://www.crystallography.net/
#
# All data on this site have been placed in the public domain by the
# contributors.
#
data_1547353
loop_
_publ_author_name
'Nobuo Ishizawa'
'Hayato Setoguchi'
'Kazumichi Yanagisawa'
_publ_section_title
;
 Structural evolution of calcite at high temperatures: Phase V unveiled
;
_journal_name_full               'Scientific Reports'
_journal_page_first              2832
_journal_paper_doi               10.1038/srep02832
_journal_volume                  3
_journal_year                    2013
_chemical_absolute_configuration .
_chemical_formula_sum            'C Ca O3'
_chemical_formula_weight         100.1
_space_group_IT_number           167
_symmetry_cell_setting           trigonal
_symmetry_Int_Tables_number      167
_symmetry_space_group_name_Hall  '-R 3 2"c'
_symmetry_space_group_name_H-M   'R -3 c :H'
_cell_angle_alpha                90
_cell_angle_beta                 90
_cell_angle_gamma                120
_cell_formula_units_Z            6
_cell_length_a                   4.97630(10)
_cell_length_b                   4.97630(10)
_cell_length_c                   17.3134(5)
_cell_measurement_temperature    787
_cell_volume                     371.301(15)
_diffrn_ambient_temperature      787
_diffrn_measured_fraction_theta_full 1
_diffrn_measured_fraction_theta_max 1
_diffrn_measurement_device       'four-cycle diffractometer'
_diffrn_measurement_device_type  'Bruker CCD'
_diffrn_radiation_monochromator  graphite
_diffrn_radiation_probe          x-ray
_diffrn_radiation_source         'X-ray tube'
_diffrn_radiation_type           'Mo K\a'
_diffrn_radiation_wavelength     0.71069
_diffrn_reflns_av_R_equivalents  0.0221
_diffrn_reflns_av_sigmaI/netI    0.0144
_diffrn_reflns_limit_h_max       7
_diffrn_reflns_limit_h_min       -5
_diffrn_reflns_limit_k_max       7
_diffrn_reflns_limit_k_min       -6
_diffrn_reflns_limit_l_max       22
_diffrn_reflns_limit_l_min       -24
_diffrn_reflns_number            786
_diffrn_reflns_theta_full        30.45
_diffrn_reflns_theta_max         30.45
_diffrn_reflns_theta_min         5.28
_exptl_absorpt_coefficient_mu    2.261
_exptl_crystal_density_diffrn    2.6848
_exptl_crystal_F_000             300
_refine_diff_density_max         0.35
_refine_diff_density_min         -0.25
_refine_ls_extinction_coef       1100(400)
_refine_ls_extinction_method
'B-C type 1 Gaussian isotropic (Becker & Coppens, 1974)'
_refine_ls_goodness_of_fit_gt    2.68
_refine_ls_goodness_of_fit_ref   2.67
_refine_ls_number_constraints    0
_refine_ls_number_parameters     15
_refine_ls_number_reflns         128
_refine_ls_number_restraints     0
_refine_ls_R_factor_all          0.0271
_refine_ls_R_factor_gt           0.0269
_refine_ls_shift/su_max          0.0225
_refine_ls_shift/su_mean         0.0096
_refine_ls_structure_factor_coef F
_refine_ls_weighting_details     w=1/(\s^2^(F)+0.0001F^2^)
_refine_ls_weighting_scheme      sigma
_refine_ls_wR_factor_gt          0.0342
_refine_ls_wR_factor_ref         0.0344
_reflns_number_gt                126
_reflns_number_total             128
_reflns_threshold_expression     I>3\s(I)
_cod_data_source_file            srep02832-s28.cif
_cod_data_source_block           787K_hs11_h500_I_anharm_in_air
_cod_depositor_comments
;
The following automatic conversions were performed:

'_diffrn_radiation_probe' value 'X-ray' changed to 'x-ray' according
to the built-in table from CIF Core dictionary named 'cif_core.dic'
version 2.4.1 from 2010-06-29.

Automatic conversion script
Id: cif_fix_values 5376 2017-05-30 11:51:03Z andrius 

The following automatic conversions were performed:

data name '_atom_site_site_symmetry_mutiplicity' was replaced with
'_atom_site_site_symmetry_multiplicity' as specified in the
replacement file 'data/replacement-values/replacement_tags.lst'.

Automatic conversion script
Id: cif_correct_tags 9268 2022-04-12 08:56:07Z antanas 
;
_cod_original_sg_symbol_Hall     '-R 3;-2"c'
_cod_original_sg_symbol_H-M      'R -3 c'
_cod_original_formula_sum        'C1 Ca1 O3'
_cod_database_code               1547353
loop_
_symmetry_equiv_pos_site_id
_symmetry_equiv_pos_as_xyz
1 x,y,z
2 -y,x-y,z
3 -x+y,-x,z
4 y,x,-z+1/2
5 x-y,-y,-z+1/2
6 -x,-x+y,-z+1/2
7 -x,-y,-z
8 y,-x+y,-z
9 x-y,x,-z
10 -y,-x,z+1/2
11 -x+y,y,z+1/2
12 x,x-y,z+1/2
13 x+2/3,y+1/3,z+1/3
14 -y+2/3,x-y+1/3,z+1/3
15 -x+y+2/3,-x+1/3,z+1/3
16 y+2/3,x+1/3,-z+5/6
17 x-y+2/3,-y+1/3,-z+5/6
18 -x+2/3,-x+y+1/3,-z+5/6
19 -x+2/3,-y+1/3,-z+1/3
20 y+2/3,-x+y+1/3,-z+1/3
21 x-y+2/3,x+1/3,-z+1/3
22 -y+2/3,-x+1/3,z+5/6
23 -x+y+2/3,y+1/3,z+5/6
24 x+2/3,x-y+1/3,z+5/6
25 x+1/3,y+2/3,z+2/3
26 -y+1/3,x-y+2/3,z+2/3
27 -x+y+1/3,-x+2/3,z+2/3
28 y+1/3,x+2/3,-z+1/6
29 x-y+1/3,-y+2/3,-z+1/6
30 -x+1/3,-x+y+2/3,-z+1/6
31 -x+1/3,-y+2/3,-z+2/3
32 y+1/3,-x+y+2/3,-z+2/3
33 x-y+1/3,x+2/3,-z+2/3
34 -y+1/3,-x+2/3,z+1/6
35 -x+y+1/3,y+2/3,z+1/6
36 x+1/3,x-y+2/3,z+1/6
loop_
_atom_site_label
_atom_site_type_symbol
_atom_site_fract_x
_atom_site_fract_y
_atom_site_fract_z
_atom_site_adp_type
_atom_site_U_iso_or_equiv
_atom_site_site_symmetry_multiplicity
_atom_site_occupancy
_atom_site_calc_flag
_atom_site_refinement_flags
_atom_site_disorder_assembly
_atom_site_disorder_group
Ca1 Ca 0 0 0 Uani 0.0299(3) 6 1 d . . .
C1 C 0 0 0.25 Uani 0.0253(8) 6 1 d . . .
O1 O 0.2511(7) 0 0.25 Uani 0.0529(8) 18 1 d . . .
loop_
_atom_site_aniso_label
_atom_site_aniso_type_symbol
_atom_site_aniso_U_11
_atom_site_aniso_U_22
_atom_site_aniso_U_33
_atom_site_aniso_U_12
_atom_site_aniso_U_13
_atom_site_aniso_U_23
Ca1 Ca 0.0308(4) 0.0308(4) 0.0282(5) 0.0154(2) 0 0
C1 C 0.0235(9) 0.0235(9) 0.0290(16) 0.0117(5) 0 0
O1 O 0.0361(6) 0.0714(13) 0.0630(10) 0.0357(6) -0.0142(4) -0.0284(8)
loop_
_atom_type_symbol
_atom_type_scat_dispersion_real
_atom_type_scat_dispersion_imag
_atom_type_scat_source
C 0.0033 0.0016 'International Tables Vol C tables 4.2.6.8 and 6.1.1.1'
Ca 0.2262 0.3064 'International Tables Vol C tables 4.2.6.8 and 6.1.1.1'
O 0.0106 0.0060 'International Tables Vol C tables 4.2.6.8 and 6.1.1.1'
loop_
_geom_bond_atom_site_label_1
_geom_bond_atom_site_label_2
_geom_bond_site_symmetry_1
_geom_bond_site_symmetry_2
_geom_bond_distance
Ca1 Ca1 . 16_444 4.07198(16)
Ca1 Ca1 . 16_454 4.07198(12)
Ca1 Ca1 . 16_554 4.07198(16)
Ca1 Ca1 . 28_445 4.07198(16)
Ca1 Ca1 . 28_545 4.07198(12)
Ca1 Ca1 . 28_555 4.07198(16)
Ca1 C1 . 25_444 3.21499(15)
Ca1 C1 . 25_544 3.21499(6)
Ca1 C1 . 25_554 3.21499(15)
Ca1 C1 . 19_445 3.21499(15)
Ca1 C1 . 19_455 3.21499(6)
Ca1 C1 . 19_555 3.21499(15)
Ca1 O1 . 25_444 2.3832(17)
Ca1 O1 . 26_544 2.3832(17)
Ca1 O1 . 27_554 2.383(3)
Ca1 O1 . 19_555 2.3832(17)
Ca1 O1 . 20_455 2.3832(17)
Ca1 O1 . 21_445 2.383(3)
C1 O1 . . 1.250(3)
C1 O1 . 2_555 1.250(3)
C1 O1 . 3_555 1.250(2)
loop_
_refln_index_h
_refln_index_k
_refln_index_l
_refln_F_squared_calc
_refln_F_squared_meas
_refln_F_squared_sigma
_refln_observed_status
-1 2 0 4447.49 5288.09 147.59 o
0 3 0 5096.57 5380.20 55.80 o
-2 4 0 2016.91 2027.19 24.17 o
-1 5 0 1168.65 1159.06 11.10 o
-3 6 0 349.78 330.20 6.81 o
0 6 0 143.58 137.46 3.99 o
-2 3 1 1098.13 1139.79 10.74 o
-1 4 1 6.56 6.40 0.36 o
-3 5 1 186.46 179.27 2.65 o
-5 6 1 22.65 24.07 1.03 o
-2 6 1 1.93 1.97 0.34 o
-4 7 1 12.28 14.92 1.02 o
0 1 2 956.71 1031.08 33.11 o
-2 2 2 7299.59 8069.11 134.16 o
-1 3 2 3315.87 3354.93 29.85 o
-3 4 2 281.97 272.63 3.17 o
0 4 2 18.32 19.03 0.68 o
-5 5 2 245.93 250.45 4.45 o
-2 5 2 635.34 622.64 6.47 o
-4 6 2 298.79 301.06 4.05 o
-1 6 2 264.30 266.88 3.75 o
-3 7 2 45.03 44.62 1.50 o
-1 2 3 2658.18 2769.41 36.43 o
-2 4 3 4.26 4.14 0.34 o
-4 5 3 15.86 15.03 0.61 o
-1 5 3 3.85 3.56 0.37 o
-3 6 3 9.55 9.12 0.73 o
-1 1 4 19861.40 20716.30 495.96 o
0 2 4 3682.20 3499.36 37.02 o
-2 3 4 2273.77 2330.58 20.17 o
-4 4 4 3254.45 3344.84 42.35 o
-1 4 4 2891.89 2891.74 25.22 o
-3 5 4 837.65 830.27 9.05 o
0 5 4 622.04 607.69 12.04 o
-5 6 4 202.98 204.85 2.88 o
-2 6 4 288.36 282.78 3.92 o
-1 3 5 850.32 867.41 6.81 o
-3 4 5 31.96 32.07 0.78 o
-2 5 5 108.72 106.03 1.58 o
-4 6 5 1.84 1.29 0.31 o
-1 6 5 17.86 17.65 0.89 o
0 0 6 951.14 1142.97 26.35 o
-1 2 6 5359.49 5709.63 42.22 o
-3 3 6 659.03 633.04 8.03 o
0 3 6 426.10 417.01 4.78 o
-2 4 6 956.44 944.66 8.45 o
-4 5 6 166.72 170.59 2.62 o
-1 5 6 233.98 229.05 3.14 o
-3 6 6 286.80 292.86 4.00 o
-2 3 7 451.61 465.58 4.33 o
-1 4 7 0.96 1.10 0.16 o
-3 5 7 144.61 141.56 2.39 o
-5 6 7 18.98 17.97 0.95 o
-2 6 7 1.52 1.54 0.29 o
0 1 8 10696.40 11904.60 124.92 o
-2 2 8 1643.83 1660.52 16.54 o
-1 3 8 2013.53 1998.67 13.35 o
-3 4 8 2132.22 2215.05 19.83 o
0 4 8 2108.98 2033.05 21.16 o
-5 5 8 441.80 453.97 7.27 o
-2 5 8 543.70 550.19 5.78 o
-4 6 8 300.50 304.09 4.19 o
-1 6 8 201.89 197.45 3.11 o
-1 2 9 767.43 803.65 6.18 o
-2 4 9 3.01 2.59 0.24 o
-4 5 9 14.27 13.40 0.74 o
-1 5 9 0.14 0.50 0.21 <
-3 6 9 5.68 4.57 0.50 o
-1 1 10 1072.86 1048.50 9.71 o
0 2 10 1802.88 1768.85 17.59 o
-2 3 10 1594.41 1589.50 12.02 o
-4 4 10 22.33 25.20 1.33 o
-1 4 10 244.18 229.21 2.48 o
-3 5 10 307.36 306.01 3.58 o
0 5 10 127.02 122.09 2.46 o
-5 6 10 177.14 173.46 2.96 o
-2 6 10 212.47 213.88 2.77 o
-1 3 11 252.50 255.93 2.40 o
-3 4 11 28.77 29.13 0.74 o
-2 5 11 30.83 31.97 0.87 o
-4 6 11 1.47 0.73 0.36 <
0 0 12 9033.53 5121.46 113.17 o
-1 2 12 1568.92 1567.29 10.72 o
-3 3 12 1527.20 1519.20 20.14 o
0 3 12 1928.71 1845.05 20.78 o
-2 4 12 808.86 826.99 6.70 o
-4 5 12 585.27 602.51 7.92 o
-1 5 12 462.02 461.86 4.83 o
-3 6 12 206.79 204.70 3.27 o
-2 3 13 79.22 82.93 1.12 o
-1 4 13 4.02 4.54 0.36 o
-3 5 13 56.66 56.10 1.08 o
0 1 14 522.91 491.70 6.21 o
-2 2 14 1370.41 1347.61 15.56 o
-1 3 14 595.79 583.00 4.91 o
-3 4 14 136.82 136.85 1.92 o
0 4 14 53.04 53.03 1.50 o
-5 5 14 112.69 111.80 2.88 o
-2 5 14 260.36 262.47 3.17 o
-1 2 15 113.31 114.61 1.39 o
-2 4 15 1.43 3.22 0.34 o
-4 5 15 4.83 5.29 0.61 o
-1 5 15 1.56 0.87 0.27 o
-1 1 16 1699.54 1718.82 17.44 o
0 2 16 1028.09 1001.41 12.02 o
-2 3 16 585.04 588.66 5.36 o
-4 4 16 711.80 770.00 11.36 o
-1 4 16 601.05 604.64 6.08 o
-3 5 16 281.60 293.71 3.82 o
-1 3 17 43.47 42.32 0.91 o
-3 4 17 11.01 10.64 0.74 o
-2 5 17 5.08 4.62 0.45 o
0 0 18 130.38 129.99 4.90 o
-1 2 18 496.96 502.33 5.05 o
-3 3 18 165.39 171.39 3.56 o
0 3 18 105.23 106.77 2.31 o
-2 4 18 197.79 202.40 2.67 o
-2 3 19 8.29 8.29 0.53 o
-1 4 19 2.07 2.18 0.36 o
0 1 20 789.02 803.29 10.12 o
-2 2 20 339.11 345.81 5.91 o
-1 3 20 377.58 367.24 4.92 o
-3 4 20 317.50 330.02 4.64 o
-1 2 21 12.46 11.14 0.70 o
-1 1 22 172.03 169.00 3.70 o
0 2 22 141.17 147.71 3.40 o
-2 3 22 150.60 158.90 2.85 o
0 0 24 409.09 410.41 12.46 o
loop_
_jana_atom_site_adp_c_label
_jana_atom_site_adp_c_type_symbol
_jana_atom_site_adp_c_111
_jana_atom_site_adp_c_112
_jana_atom_site_adp_c_113
_jana_atom_site_adp_c_122
_jana_atom_site_adp_c_123
_jana_atom_site_adp_c_133
_jana_atom_site_adp_c_222
_jana_atom_site_adp_c_223
_jana_atom_site_adp_c_233
_jana_atom_site_adp_c_333
O1 O -0.033(6) -0.024(6) 0.0034(8) -0.024(6) 0.0034(8) -0.0012(2) 0 0 0 0

#------------------------------------------------------------------------------
#$Date: 2023-12-06 13:08:03 +0000 (Wed, 06 Dec 2023) $
#$Revision: 288072 $
#$URL: svn://www.crystallography.net/cod/cif/1/54/73/1547354.cif $
#------------------------------------------------------------------------------
#
# This file is available in the Crystallography Open Database (COD),
# http://www.crystallography.net/
#
# All data on this site have been placed in the public domain by the
# contributors.
#
data_1547354
loop_
_publ_author_name
'Nobuo Ishizawa'
'Hayato Setoguchi'
'Kazumichi Yanagisawa'
_publ_section_title
;
 Structural evolution of calcite at high temperatures: Phase V unveiled
;
_journal_name_full               'Scientific Reports'
_journal_page_first              2832
_journal_paper_doi               10.1038/srep02832
_journal_volume                  3
_journal_year                    2013
_chemical_absolute_configuration .
_chemical_formula_sum            'C Ca O'
_chemical_formula_weight         68.1
_space_group_IT_number           167
_symmetry_cell_setting           trigonal
_symmetry_Int_Tables_number      167
_symmetry_space_group_name_Hall  '-R 3 2"c'
_symmetry_space_group_name_H-M   'R -3 c :H'
_cell_angle_alpha                90
_cell_angle_beta                 90
_cell_angle_gamma                120
_cell_formula_units_Z            36
_cell_length_a                   4.9768
_cell_length_b                   4.9768
_cell_length_c                   17.3026(4)
_cell_measurement_temperature    787
_cell_volume                     371.144(9)
_diffrn_ambient_temperature      787
_diffrn_measured_fraction_theta_full 1
_diffrn_measured_fraction_theta_max 1
_diffrn_measurement_device       'four-cycle diffractometer'
_diffrn_measurement_device_type  'Bruker CCD'
_diffrn_radiation_monochromator  graphite
_diffrn_radiation_probe          x-ray
_diffrn_radiation_source         'X-ray tube'
_diffrn_radiation_type           'Mo K\a'
_diffrn_radiation_wavelength     0.71073
_diffrn_reflns_av_R_equivalents  0.0284
_diffrn_reflns_av_sigmaI/netI    0.0117
_diffrn_reflns_limit_h_max       5
_diffrn_reflns_limit_h_min       -6
_diffrn_reflns_limit_k_max       6
_diffrn_reflns_limit_k_min       -6
_diffrn_reflns_limit_l_max       19
_diffrn_reflns_limit_l_min       -24
_diffrn_reflns_number            1519
_diffrn_reflns_theta_full        29.65
_diffrn_reflns_theta_max         29.65
_diffrn_reflns_theta_min         5.29
_exptl_absorpt_coefficient_mu    12.939
_exptl_crystal_density_diffrn    10.9636
_exptl_crystal_F_000             300
_refine_diff_density_max         0.12
_refine_diff_density_min         -0.13
_refine_ls_extinction_coef       590(160)
_refine_ls_extinction_method
'B-C type 1 Gaussian isotropic (Becker & Coppens, 1974)'
_refine_ls_goodness_of_fit_gt    1.61
_refine_ls_goodness_of_fit_ref   1.60
_refine_ls_number_constraints    0
_refine_ls_number_parameters     15
_refine_ls_number_reflns         121
_refine_ls_number_restraints     0
_refine_ls_R_factor_all          0.0141
_refine_ls_R_factor_gt           0.0141
_refine_ls_shift/su_max          0.0080
_refine_ls_shift/su_mean         0.0014
_refine_ls_structure_factor_coef F
_refine_ls_weighting_details     w=1/(\s^2^(F)+0.0001F^2^)
_refine_ls_weighting_scheme      sigma
_refine_ls_wR_factor_gt          0.0197
_refine_ls_wR_factor_ref         0.0197
_reflns_number_gt                120
_reflns_number_total             121
_reflns_threshold_expression     I>3\s(I)
_cod_data_source_file            srep02832-s29.cif
_cod_data_source_block           787K_hs25_h500_I_anharm
_cod_depositor_comments
;
The following automatic conversions were performed:

'_diffrn_radiation_probe' value 'X-ray' changed to 'x-ray' according
to the built-in table from CIF Core dictionary named 'cif_core.dic'
version 2.4.1 from 2010-06-29.

Automatic conversion script
Id: cif_fix_values 5376 2017-05-30 11:51:03Z andrius 

The following automatic conversions were performed:

data name '_atom_site_site_symmetry_mutiplicity' was replaced with
'_atom_site_site_symmetry_multiplicity' as specified in the
replacement file 'data/replacement-values/replacement_tags.lst'.

Automatic conversion script
Id: cif_correct_tags 9268 2022-04-12 08:56:07Z antanas 
;
_cod_original_sg_symbol_Hall     '-R 3;-2"c'
_cod_original_sg_symbol_H-M      'R -3 c'
_cod_original_formula_sum        'C1 Ca1 O1'
_cod_database_code               1547354
loop_
_symmetry_equiv_pos_site_id
_symmetry_equiv_pos_as_xyz
1 x,y,z
2 -y,x-y,z
3 -x+y,-x,z
4 y,x,-z+1/2
5 x-y,-y,-z+1/2
6 -x,-x+y,-z+1/2
7 -x,-y,-z
8 y,-x+y,-z
9 x-y,x,-z
10 -y,-x,z+1/2
11 -x+y,y,z+1/2
12 x,x-y,z+1/2
13 x+2/3,y+1/3,z+1/3
14 -y+2/3,x-y+1/3,z+1/3
15 -x+y+2/3,-x+1/3,z+1/3
16 y+2/3,x+1/3,-z+5/6
17 x-y+2/3,-y+1/3,-z+5/6
18 -x+2/3,-x+y+1/3,-z+5/6
19 -x+2/3,-y+1/3,-z+1/3
20 y+2/3,-x+y+1/3,-z+1/3
21 x-y+2/3,x+1/3,-z+1/3
22 -y+2/3,-x+1/3,z+5/6
23 -x+y+2/3,y+1/3,z+5/6
24 x+2/3,x-y+1/3,z+5/6
25 x+1/3,y+2/3,z+2/3
26 -y+1/3,x-y+2/3,z+2/3
27 -x+y+1/3,-x+2/3,z+2/3
28 y+1/3,x+2/3,-z+1/6
29 x-y+1/3,-y+2/3,-z+1/6
30 -x+1/3,-x+y+2/3,-z+1/6
31 -x+1/3,-y+2/3,-z+2/3
32 y+1/3,-x+y+2/3,-z+2/3
33 x-y+1/3,x+2/3,-z+2/3
34 -y+1/3,-x+2/3,z+1/6
35 -x+y+1/3,y+2/3,z+1/6
36 x+1/3,x-y+2/3,z+1/6
loop_
_atom_site_label
_atom_site_type_symbol
_atom_site_fract_x
_atom_site_fract_y
_atom_site_fract_z
_atom_site_adp_type
_atom_site_U_iso_or_equiv
_atom_site_site_symmetry_multiplicity
_atom_site_occupancy
_atom_site_calc_flag
_atom_site_refinement_flags
_atom_site_disorder_assembly
_atom_site_disorder_group
Ca1 Ca 0 0 0 Uani 0.03098(19) 6 1 d . . .
C1 C 0 0 0.25 Uani 0.0264(5) 6 1 d . . .
O1 O 0.2514(3) 0 0.25 Uani 0.0531(4) 18 1 d . . .
loop_
_atom_site_aniso_label
_atom_site_aniso_type_symbol
_atom_site_aniso_U_11
_atom_site_aniso_U_22
_atom_site_aniso_U_33
_atom_site_aniso_U_12
_atom_site_aniso_U_13
_atom_site_aniso_U_23
Ca1 Ca 0.0317(2) 0.0317(2) 0.0296(3) 0.01584(12) 0 0
C1 C 0.0246(6) 0.0246(6) 0.0299(10) 0.0123(3) 0 0
O1 O 0.0368(3) 0.0709(7) 0.0631(6) 0.0354(3) -0.0140(2) -0.0281(4)
loop_
_atom_type_symbol
_atom_type_scat_dispersion_real
_atom_type_scat_dispersion_imag
_atom_type_scat_source
C 0.0033 0.0016 'International Tables Vol C tables 4.2.6.8 and 6.1.1.1'
Ca 0.2262 0.3064 'International Tables Vol C tables 4.2.6.8 and 6.1.1.1'
O 0.0106 0.0060 'International Tables Vol C tables 4.2.6.8 and 6.1.1.1'
loop_
_geom_bond_atom_site_label_1
_geom_bond_atom_site_label_2
_geom_bond_site_symmetry_1
_geom_bond_site_symmetry_2
_geom_bond_distance
Ca1 C1 . 25_444 3.21484(3)
Ca1 C1 . 25_544 3.21484(3)
Ca1 C1 . 25_554 3.21484(3)
Ca1 C1 . 19_445 3.21484(3)
Ca1 C1 . 19_455 3.21484(3)
Ca1 C1 . 19_555 3.21484(3)
Ca1 O1 . 25_444 2.3820(9)
Ca1 O1 . 25_554 3.4497(6)
Ca1 O1 . 26_444 3.4497(6)
Ca1 O1 . 26_544 2.3820(9)
Ca1 O1 . 27_544 3.4497(18)
Ca1 O1 . 27_554 2.3820(14)
Ca1 O1 . 19_445 3.4497(6)
Ca1 O1 . 19_555 2.3820(9)
Ca1 O1 . 20_455 2.3820(9)
Ca1 O1 . 20_555 3.4497(6)
Ca1 O1 . 21_445 2.3820(14)
Ca1 O1 . 21_455 3.4497(18)
C1 O1 . 1_455 3.7258(17)
C1 O1 . . 1.2510(17)
C1 O1 . 2_545 3.7258(17)
C1 O1 . 2_555 1.2510(17)
C1 O1 . 3_555 1.2510(12)
C1 O1 . 3_665 3.7258(12)
C1 O1 . 19_555 3.4513(6)
C1 O1 . 31_545 3.4513(6)
C1 O1 . 20_455 3.4513(6)
C1 O1 . 32_555 3.4513(6)
C1 O1 . 21_445 3.4513(10)
C1 O1 . 33_445 3.4513(10)
O1 O1 . 2_545 3.2841(16)
O1 O1 . 2_555 2.167(2)
O1 O1 . 2_655 3.2841(16)
O1 O1 . 3_555 2.167(2)
O1 O1 . 3_655 3.284(3)
O1 O1 . 3_665 3.2841(14)
O1 O1 . 19_555 3.22185(12)
O1 O1 . 31_545 3.22185(12)
O1 O1 . 20_555 3.4513(10)
O1 O1 . 32_555 3.4513(10)
O1 O1 . 21_445 3.4513(8)
O1 O1 . 33_545 3.4513(14)
loop_
_refln_index_h
_refln_index_k
_refln_index_l
_refln_F_squared_calc
_refln_F_squared_meas
_refln_F_squared_sigma
_refln_observed_status
-1 2 0 4416.27 4068.98 39.24 o
0 3 0 5048.41 4920.01 48.30 o
-2 4 0 1947.24 1919.08 21.26 o
-1 5 0 1121.58 1094.10 10.03 o
-3 6 0 332.72 333.35 4.96 o
0 6 0 134.08 141.52 6.67 o
-2 3 1 1089.41 1146.03 7.56 o
-1 4 1 6.55 6.86 0.22 o
-3 5 1 180.54 173.41 1.75 o
-5 6 1 22.46 22.94 0.75 o
-2 6 1 2.05 1.99 0.26 o
0 1 2 958.40 1050.01 11.91 o
-2 2 2 7224.76 7673.60 85.11 o
-1 3 2 3272.18 3250.34 22.11 o
-3 4 2 276.80 266.24 2.11 o
0 4 2 16.73 18.28 0.58 o
-5 5 2 234.70 222.19 3.41 o
-2 5 2 624.18 604.09 5.37 o
-4 6 2 283.42 285.81 3.17 o
-1 6 2 250.13 257.74 3.45 o
-1 2 3 2668.72 2909.18 20.28 o
-2 4 3 4.47 4.01 0.20 o
-4 5 3 14.64 14.55 0.41 o
-1 5 3 3.29 3.60 0.26 o
-3 6 3 9.31 10.21 0.43 o
-1 1 4 19771.90 19710.90 278.90 o
0 2 4 3645.70 3498.73 35.07 o
-2 3 4 2234.82 2273.42 15.19 o
-4 4 4 3162.50 3042.21 32.10 o
-1 4 4 2815.11 2766.87 21.96 o
-3 5 4 795.05 797.69 6.98 o
0 5 4 593.14 582.89 7.67 o
-5 6 4 191.32 189.32 3.04 o
-2 6 4 272.08 267.51 2.87 o
-1 3 5 843.21 846.44 6.49 o
-3 4 5 31.12 31.46 0.48 o
-2 5 5 104.68 101.17 1.27 o
-4 6 5 1.75 2.31 0.30 o
-1 6 5 17.75 18.97 0.73 o
0 0 6 963.20 1205.16 23.33 o
-1 2 6 5298.04 5220.87 39.03 o
-3 3 6 638.72 636.24 6.03 o
0 3 6 409.07 395.79 4.55 o
-2 4 6 943.10 921.17 7.51 o
-4 5 6 158.85 158.50 1.90 o
-1 5 6 223.29 222.84 2.26 o
-3 6 6 272.23 271.09 3.09 o
-2 3 7 449.61 468.61 3.36 o
-1 4 7 1.00 1.25 0.17 o
-3 5 7 139.93 140.60 1.64 o
-5 6 7 18.22 19.06 0.80 o
-2 6 7 1.55 1.55 0.28 o
0 1 8 10574.70 10636.70 118.36 o
-2 2 8 1611.22 1656.00 16.88 o
-1 3 8 1957.62 1980.76 16.54 o
-3 4 8 2051.88 2071.52 18.88 o
0 4 8 2040.32 2027.08 23.26 o
-5 5 8 421.14 425.78 7.20 o
-2 5 8 512.61 520.26 5.28 o
-4 6 8 282.72 289.94 4.25 o
-1 6 8 187.93 183.69 3.36 o
-1 2 9 764.12 792.64 5.89 o
-2 4 9 2.64 2.66 0.20 o
-4 5 9 13.81 13.58 0.50 o
-1 5 9 0.20 0.75 0.19 o
-3 6 9 5.80 5.07 0.43 o
-1 1 10 1034.50 980.11 10.46 o
0 2 10 1757.95 1760.48 19.85 o
-2 3 10 1554.21 1519.07 13.16 o
-4 4 10 19.98 19.44 0.67 o
-1 4 10 231.84 226.27 2.24 o
-3 5 10 294.71 289.77 3.41 o
0 5 10 117.25 120.72 2.29 o
-2 6 10 199.90 205.37 3.04 o
-1 3 11 250.31 243.05 2.48 o
-3 4 11 27.05 27.54 0.56 o
-2 5 11 29.14 29.89 0.65 o
-4 6 11 1.11 0.97 0.37 <
0 0 12 8869.96 8713.06 161.87 o
-1 2 12 1516.47 1512.46 11.98 o
-3 3 12 1454.70 1476.12 17.36 o
0 3 12 1853.94 1848.45 23.98 o
-2 4 12 763.11 773.26 7.30 o
-4 5 12 553.97 564.51 6.49 o
-1 5 12 435.64 438.82 4.33 o
-3 6 12 189.22 194.22 5.93 o
-2 3 13 79.85 78.35 1.08 o
-1 4 13 4.20 3.78 0.30 o
-3 5 13 54.63 55.14 1.23 o
0 1 14 491.69 472.27 5.84 o
-2 2 14 1315.54 1298.92 16.10 o
-1 3 14 568.32 556.19 5.75 o
-3 4 14 129.31 126.56 1.64 o
0 4 14 46.82 47.02 1.21 o
-2 5 14 243.71 246.09 2.95 o
-1 2 15 111.20 107.59 1.32 o
-2 4 15 1.02 0.95 0.20 o
-4 5 15 5.00 5.11 0.73 o
-1 5 15 1.58 1.51 0.39 o
-1 1 16 1632.33 1597.48 19.70 o
0 2 16 972.15 940.82 15.89 o
-2 3 16 543.34 540.20 5.76 o
-4 4 16 666.61 720.79 15.30 o
-1 4 16 563.25 553.56 6.06 o
-3 5 16 257.85 276.91 5.43 o
-1 3 17 43.02 42.55 0.86 o
-3 4 17 9.97 8.72 0.45 o
0 0 18 114.84 117.39 3.62 o
-1 2 18 463.21 454.71 4.92 o
-3 3 18 155.54 159.26 3.58 o
0 3 18 95.37 98.46 2.24 o
-2 4 18 182.95 186.67 2.55 o
-2 3 19 8.61 7.98 0.43 o
-1 4 19 2.17 2.65 0.45 o
0 1 20 739.05 725.38 9.93 o
-2 2 20 309.46 302.62 4.72 o
-1 3 20 345.48 342.04 4.33 o
-1 2 21 12.00 12.06 0.56 o
-1 1 22 152.81 158.87 2.80 o
0 2 22 126.48 134.24 3.11 o
0 0 24 373.75 377.53 9.94 o
loop_
_jana_atom_site_adp_c_label
_jana_atom_site_adp_c_type_symbol
_jana_atom_site_adp_c_111
_jana_atom_site_adp_c_112
_jana_atom_site_adp_c_113
_jana_atom_site_adp_c_122
_jana_atom_site_adp_c_123
_jana_atom_site_adp_c_133
_jana_atom_site_adp_c_222
_jana_atom_site_adp_c_223
_jana_atom_site_adp_c_233
_jana_atom_site_adp_c_333
O1 O -0.032(3) -0.022(3) 0.0035(5) -0.022(3) 0.0035(5) -0.00091(12) 0 0 0 0

#------------------------------------------------------------------------------
#$Date: 2023-12-06 13:08:03 +0000 (Wed, 06 Dec 2023) $
#$Revision: 288072 $
#$URL: svn://www.crystallography.net/cod/cif/1/54/73/1547355.cif $
#------------------------------------------------------------------------------
#
# This file is available in the Crystallography Open Database (COD),
# http://www.crystallography.net/
#
# All data on this site have been placed in the public domain by the
# contributors.
#
data_1547355
loop_
_publ_author_name
'Nobuo Ishizawa'
'Hayato Setoguchi'
'Kazumichi Yanagisawa'
_publ_section_title
;
 Structural evolution of calcite at high temperatures: Phase V unveiled
;
_journal_name_full               'Scientific Reports'
_journal_page_first              2832
_journal_paper_doi               10.1038/srep02832
_journal_volume                  3
_journal_year                    2013
_chemical_absolute_configuration .
_chemical_formula_sum            'C Ca O'
_chemical_formula_weight         68.1
_space_group_IT_number           167
_symmetry_cell_setting           trigonal
_symmetry_Int_Tables_number      167
_symmetry_space_group_name_Hall  '-R 3 2"c'
_symmetry_space_group_name_H-M   'R -3 c :H'
_cell_angle_alpha                90
_cell_angle_beta                 90
_cell_angle_gamma                120
_cell_formula_units_Z            36
_cell_length_a                   4.9756
_cell_length_b                   4.9756
_cell_length_c                   17.3717(3)
_cell_measurement_temperature    891
_cell_volume                     372.446(6)
_diffrn_ambient_temperature      891
_diffrn_measured_fraction_theta_full 0.99
_diffrn_measured_fraction_theta_max 0.99
_diffrn_measurement_device       'four-cycle diffractometer'
_diffrn_measurement_device_type  'Bruker CCD'
_diffrn_radiation_monochromator  graphite
_diffrn_radiation_probe          x-ray
_diffrn_radiation_source         'X-ray tube'
_diffrn_radiation_type           'Mo K\a'
_diffrn_radiation_wavelength     0.71073
_diffrn_reflns_av_R_equivalents  0.0233
_diffrn_reflns_av_sigmaI/netI    0.0128
_diffrn_reflns_limit_h_max       5
_diffrn_reflns_limit_h_min       -7
_diffrn_reflns_limit_k_max       7
_diffrn_reflns_limit_k_min       -4
_diffrn_reflns_limit_l_max       27
_diffrn_reflns_limit_l_min       -24
_diffrn_reflns_number            1320
_diffrn_reflns_theta_full        34.9
_diffrn_reflns_theta_max         34.9
_diffrn_reflns_theta_min         5.28
_exptl_absorpt_coefficient_mu    12.894
_exptl_crystal_density_diffrn    10.9252
_exptl_crystal_F_000             300
_refine_diff_density_max         0.12
_refine_diff_density_min         -0.11
_refine_ls_extinction_coef       340(150)
_refine_ls_extinction_method
'B-C type 1 Gaussian isotropic (Becker & Coppens, 1974)'
_refine_ls_goodness_of_fit_gt    1.58
_refine_ls_goodness_of_fit_ref   1.52
_refine_ls_number_constraints    0
_refine_ls_number_parameters     15
_refine_ls_number_reflns         185
_refine_ls_number_restraints     0
_refine_ls_R_factor_all          0.0174
_refine_ls_R_factor_gt           0.0159
_refine_ls_shift/su_max          0.0026
_refine_ls_shift/su_mean         0.0009
_refine_ls_structure_factor_coef F
_refine_ls_weighting_details     w=1/(\s^2^(F)+0.0001F^2^)
_refine_ls_weighting_scheme      sigma
_refine_ls_wR_factor_gt          0.0220
_refine_ls_wR_factor_ref         0.0223
_reflns_number_gt                169
_reflns_number_total             185
_reflns_threshold_expression     I>3\s(I)
_cod_data_source_file            srep02832-s30.cif
_cod_data_source_block           891K_hs30_h600_I_anharm
_cod_depositor_comments
;
The following automatic conversions were performed:

'_diffrn_radiation_probe' value 'X-ray' changed to 'x-ray' according
to the built-in table from CIF Core dictionary named 'cif_core.dic'
version 2.4.1 from 2010-06-29.

Automatic conversion script
Id: cif_fix_values 5376 2017-05-30 11:51:03Z andrius 

The following automatic conversions were performed:

data name '_atom_site_site_symmetry_mutiplicity' was replaced with
'_atom_site_site_symmetry_multiplicity' as specified in the
replacement file 'data/replacement-values/replacement_tags.lst'.

Automatic conversion script
Id: cif_correct_tags 9268 2022-04-12 08:56:07Z antanas 
;
_cod_original_sg_symbol_Hall     '-R 3;-2"c'
_cod_original_sg_symbol_H-M      'R -3 c'
_cod_original_formula_sum        'C1 Ca1 O1'
_cod_database_code               1547355
loop_
_symmetry_equiv_pos_site_id
_symmetry_equiv_pos_as_xyz
1 x,y,z
2 -y,x-y,z
3 -x+y,-x,z
4 y,x,-z+1/2
5 x-y,-y,-z+1/2
6 -x,-x+y,-z+1/2
7 -x,-y,-z
8 y,-x+y,-z
9 x-y,x,-z
10 -y,-x,z+1/2
11 -x+y,y,z+1/2
12 x,x-y,z+1/2
13 x+2/3,y+1/3,z+1/3
14 -y+2/3,x-y+1/3,z+1/3
15 -x+y+2/3,-x+1/3,z+1/3
16 y+2/3,x+1/3,-z+5/6
17 x-y+2/3,-y+1/3,-z+5/6
18 -x+2/3,-x+y+1/3,-z+5/6
19 -x+2/3,-y+1/3,-z+1/3
20 y+2/3,-x+y+1/3,-z+1/3
21 x-y+2/3,x+1/3,-z+1/3
22 -y+2/3,-x+1/3,z+5/6
23 -x+y+2/3,y+1/3,z+5/6
24 x+2/3,x-y+1/3,z+5/6
25 x+1/3,y+2/3,z+2/3
26 -y+1/3,x-y+2/3,z+2/3
27 -x+y+1/3,-x+2/3,z+2/3
28 y+1/3,x+2/3,-z+1/6
29 x-y+1/3,-y+2/3,-z+1/6
30 -x+1/3,-x+y+2/3,-z+1/6
31 -x+1/3,-y+2/3,-z+2/3
32 y+1/3,-x+y+2/3,-z+2/3
33 x-y+1/3,x+2/3,-z+2/3
34 -y+1/3,-x+2/3,z+1/6
35 -x+y+1/3,y+2/3,z+1/6
36 x+1/3,x-y+2/3,z+1/6
loop_
_atom_site_label
_atom_site_type_symbol
_atom_site_fract_x
_atom_site_fract_y
_atom_site_fract_z
_atom_site_adp_type
_atom_site_U_iso_or_equiv
_atom_site_site_symmetry_multiplicity
_atom_site_occupancy
_atom_site_calc_flag
_atom_site_refinement_flags
_atom_site_disorder_assembly
_atom_site_disorder_group
Ca1 Ca 0 0 0 Uani 0.03624(14) 6 1 d . . .
C1 C 0 0 0.25 Uani 0.0307(4) 6 1 d . . .
O1 O 0.2504(3) 0 0.25 Uani 0.0631(5) 18 1 d . . .
loop_
_atom_site_aniso_label
_atom_site_aniso_type_symbol
_atom_site_aniso_U_11
_atom_site_aniso_U_22
_atom_site_aniso_U_33
_atom_site_aniso_U_12
_atom_site_aniso_U_13
_atom_site_aniso_U_23
Ca1 Ca 0.03733(18) 0.03733(18) 0.03406(19) 0.01866(9) 0 0
C1 C 0.0285(4) 0.0285(4) 0.0352(7) 0.0143(2) 0 0
O1 O 0.0435(3) 0.0862(8) 0.0739(6) 0.0431(4) -0.0168(3) -0.0337(5)
loop_
_atom_type_symbol
_atom_type_scat_dispersion_real
_atom_type_scat_dispersion_imag
_atom_type_scat_source
C 0.0033 0.0016 'International Tables Vol C tables 4.2.6.8 and 6.1.1.1'
Ca 0.2262 0.3064 'International Tables Vol C tables 4.2.6.8 and 6.1.1.1'
O 0.0106 0.0060 'International Tables Vol C tables 4.2.6.8 and 6.1.1.1'
loop_
_geom_bond_atom_site_label_1
_geom_bond_atom_site_label_2
_geom_bond_site_symmetry_1
_geom_bond_site_symmetry_2
_geom_bond_distance
Ca1 Ca1 . 16_444 4.07859(7)
Ca1 Ca1 . 16_454 4.07859(7)
Ca1 Ca1 . 16_554 4.07859(7)
Ca1 Ca1 . 28_445 4.07859(7)
Ca1 Ca1 . 28_545 4.07859(7)
Ca1 Ca1 . 28_555 4.07859(7)
Ca1 C1 . 25_444 3.21681(2)
Ca1 C1 . 25_544 3.21681(2)
Ca1 C1 . 25_554 3.21681(2)
Ca1 C1 . 19_445 3.21681(2)
Ca1 C1 . 19_455 3.21681(2)
Ca1 C1 . 19_555 3.21681(2)
Ca1 O1 . 25_444 2.3876(8)
Ca1 O1 . 26_544 2.3876(8)
Ca1 O1 . 27_554 2.3876(13)
Ca1 O1 . 19_555 2.3876(8)
Ca1 O1 . 20_455 2.3876(8)
Ca1 O1 . 21_445 2.3876(13)
C1 O1 . . 1.2460(16)
C1 O1 . 2_555 1.2460(16)
C1 O1 . 3_555 1.2460(12)
loop_
_refln_index_h
_refln_index_k
_refln_index_l
_refln_F_squared_calc
_refln_F_squared_meas
_refln_F_squared_sigma
_refln_observed_status
-1 2 0 4267.28 3948.99 37.65 o
0 3 0 4394.72 4454.57 49.43 o
-2 4 0 1833.62 1900.80 21.20 o
-1 5 0 871.49 859.50 7.93 o
-3 6 0 240.48 236.62 3.76 o
0 6 0 89.31 92.10 2.11 o
-2 7 0 127.14 123.41 2.53 o
-2 3 1 959.52 1012.27 7.25 o
-1 4 1 5.85 5.81 0.25 o
-3 5 1 141.79 135.74 1.58 o
-5 6 1 12.23 13.23 0.55 o
-2 6 1 1.21 2.18 0.28 o
-4 7 1 9.56 10.78 0.59 o
-1 7 1 1.83 2.54 0.66 o
0 1 2 932.33 993.27 9.95 o
-2 2 2 7027.52 7335.93 76.17 o
-1 3 2 2947.12 2971.47 21.07 o
-3 4 2 224.82 229.16 2.13 o
0 4 2 20.16 20.13 0.70 o
-5 5 2 177.41 173.25 2.98 o
-2 5 2 453.22 444.17 4.10 o
-4 6 2 202.19 206.46 2.34 o
-1 6 2 169.13 169.17 2.15 o
-6 7 2 29.34 29.22 1.58 o
-3 7 2 27.38 27.70 0.84 o
-1 2 3 2411.11 2672.17 18.20 o
-2 4 3 3.24 2.91 0.21 o
-4 5 3 15.13 15.19 0.51 o
-1 5 3 3.95 3.04 0.30 o
-3 6 3 4.76 4.97 0.38 o
-5 7 3 13.45 15.30 1.14 o
-2 7 3 7.96 7.96 0.87 o
-1 1 4 19266.80 18686.10 267.22 o
0 2 4 3502.60 3370.83 28.69 o
-2 3 4 2042.22 2113.54 14.17 o
-4 4 4 2546.12 2536.99 31.12 o
-1 4 4 2401.16 2396.50 17.40 o
-3 5 4 675.73 672.30 5.97 o
0 5 4 424.59 413.36 5.93 o
-5 6 4 130.34 131.54 2.01 o
-2 6 4 195.41 190.14 2.41 o
-4 7 4 186.40 184.21 2.96 o
-1 7 4 82.00 82.41 2.68 o
-1 3 5 732.02 731.97 5.55 o
-3 4 5 29.03 27.93 0.51 o
-2 5 5 78.10 71.28 0.95 o
-4 6 5 1.09 1.20 0.27 o
-1 6 5 9.17 9.87 0.55 o
-6 7 5 2.18 2.53 0.72 o
-3 7 5 4.71 6.13 0.66 o
0 0 6 869.23 1146.46 23.80 o
-1 2 6 4974.98 5066.19 39.44 o
-3 3 6 612.42 604.47 6.77 o
0 3 6 376.55 374.92 4.35 o
-2 4 6 730.05 685.64 5.93 o
-4 5 6 117.28 115.02 1.71 o
-1 5 6 174.31 168.26 2.07 o
-6 6 6 116.84 119.78 4.73 o
-3 6 6 190.84 190.40 2.26 o
0 6 6 68.43 68.45 2.53 o
-5 7 6 31.34 35.32 2.47 o
-2 7 6 32.93 34.77 2.35 o
-2 3 7 370.72 372.03 2.87 o
-1 4 7 1.08 1.12 0.17 o
-3 5 7 106.82 104.71 1.39 o
-5 6 7 10.34 10.40 0.59 o
-2 6 7 0.91 0.28 0.27 <
-4 7 7 7.64 7.63 0.93 o
-1 7 7 0.93 0.97 0.61 <
0 1 8 10083.60 10289.40 138.85 o
-2 2 8 1424.23 1440.86 18.11 o
-1 3 8 1800.51 1820.31 13.09 o
-3 4 8 1712.50 1706.06 13.80 o
0 4 8 1552.54 1546.85 21.37 o
-5 5 8 300.12 311.04 5.28 o
-2 5 8 416.91 421.99 3.91 o
-4 6 8 194.69 196.12 2.64 o
-1 6 8 129.48 132.96 2.05 o
-6 7 8 53.51 52.39 2.18 o
-3 7 8 134.79 135.55 3.65 o
-1 2 9 643.32 658.50 5.11 o
-2 4 9 2.04 2.07 0.21 o
-4 5 9 12.52 12.66 0.55 o
-1 5 9 0.05 0.15 0.21 <
-3 6 9 2.84 2.51 0.36 o
-5 7 9 10.79 8.18 1.42 o
-2 7 9 2.18 3.46 1.03 o
-1 1 10 1023.76 993.41 11.34 o
0 2 10 1509.88 1522.10 15.80 o
-2 3 10 1348.35 1322.97 10.16 o
-4 4 10 17.15 17.03 0.82 o
-1 4 10 191.74 187.28 1.96 o
-3 5 10 205.53 207.03 2.60 o
0 5 10 85.36 83.51 2.07 o
-5 6 10 106.45 107.61 1.96 o
-2 6 10 129.85 132.34 2.15 o
-4 7 10 12.72 12.51 1.14 o
-1 3 11 198.11 190.35 1.71 o
-3 4 11 23.64 24.91 0.61 o
-2 5 11 19.06 19.78 0.59 o
-4 6 11 0.76 0.72 0.32 <
-1 6 11 4.46 5.22 0.63 o
-3 7 11 0.68 0.99 0.59 <
0 0 12 7893.09 8068.45 190.10 o
-1 2 12 1386.38 1389.94 9.65 o
-3 3 12 1171.42 1180.71 14.19 o
0 3 12 1525.06 1566.33 19.62 o
-2 4 12 636.56 644.49 5.78 o
-4 5 12 401.74 412.92 4.96 o
-1 5 12 307.24 310.98 3.61 o
-6 6 12 29.48 24.25 2.13 o
-3 6 12 129.70 133.04 2.18 o
0 6 12 72.35 83.59 3.93 o
-5 7 12 61.16 57.80 3.32 o
-2 7 12 56.52 51.06 3.02 o
-2 3 13 56.13 54.38 0.76 o
-1 4 13 3.59 3.89 0.28 o
-3 5 13 37.43 36.30 0.80 o
-5 6 13 5.32 5.66 0.87 o
-2 6 13 0.37 0.44 0.34 <
-4 7 13 2.74 2.75 0.74 o
0 1 14 456.35 427.93 5.36 o
-2 2 14 1132.71 1117.57 12.27 o
-1 3 14 450.93 435.47 3.59 o
-3 4 14 99.63 97.07 1.46 o
0 4 14 42.62 43.62 1.39 o
-5 5 14 66.02 68.72 2.24 o
-2 5 14 167.50 163.36 1.99 o
-4 6 14 46.27 49.12 1.75 o
-1 6 14 42.13 44.49 1.96 o
-1 2 15 80.48 77.13 0.91 o
-2 4 15 0.80 0.82 0.23 o
-4 5 15 3.68 4.16 0.47 o
-1 5 15 0.98 0.30 0.30 <
-3 6 15 1.07 0.55 0.53 <
-1 1 16 1363.51 1363.88 14.46 o
0 2 16 837.38 835.79 8.90 o
-2 3 16 441.94 444.48 3.82 o
-4 4 16 468.70 465.27 8.26 o
-1 4 16 410.47 401.04 4.29 o
-3 5 16 184.26 190.48 2.70 o
0 5 16 127.93 132.55 5.18 o
-5 6 16 41.07 40.73 1.92 o
-2 6 16 57.40 52.81 1.75 o
-1 3 17 28.62 27.48 0.65 o
-3 4 17 7.49 7.04 0.49 o
-2 5 17 2.45 2.03 0.38 o
-4 6 17 0.37 -1.01 0.66 <
0 0 18 122.22 115.14 3.04 o
-1 2 18 365.05 358.24 3.02 o
-3 3 18 120.82 124.88 2.13 o
0 3 18 74.90 72.04 1.73 o
-2 4 18 129.34 126.32 2.05 o
-4 5 18 27.24 28.56 1.56 o
-1 5 18 43.92 45.63 1.59 o
-3 6 18 29.74 28.03 1.63 o
-2 3 19 4.62 4.10 0.32 o
-1 4 19 1.51 1.08 0.40 <
-3 5 19 6.99 6.78 0.93 o
0 1 20 571.34 564.10 6.38 o
-2 2 20 242.50 231.74 3.10 o
-1 3 20 259.88 258.43 2.64 o
-3 4 20 194.63 194.03 3.21 o
0 4 20 167.32 167.38 4.23 o
-2 5 20 64.94 69.17 1.99 o
-1 2 21 6.84 6.06 0.34 o
-2 4 21 0.19 0.57 0.40 <
-4 5 21 0.44 -0.49 0.63 <
-1 5 21 0.51 0.13 0.53 <
-1 1 22 121.93 122.14 2.01 o
0 2 22 90.23 91.34 1.71 o
-2 3 22 94.36 99.37 1.48 o
-4 4 22 12.16 7.97 1.44 o
-1 4 22 34.65 39.23 1.44 o
-1 3 23 2.64 2.70 0.40 o
-3 4 23 1.18 0.61 0.51 <
0 0 24 254.32 254.91 6.04 o
-1 2 24 133.50 133.73 1.79 o
-3 3 24 93.75 99.12 2.43 o
0 3 24 109.12 105.62 3.10 o
-2 4 24 58.42 56.76 1.82 o
-2 3 25 0.21 -0.04 0.34 <
0 1 26 40.96 43.75 1.54 o
-2 2 26 46.13 52.52 1.71 o
-1 2 27 0.39 0.19 0.32 <
loop_
_jana_atom_site_adp_c_label
_jana_atom_site_adp_c_type_symbol
_jana_atom_site_adp_c_111
_jana_atom_site_adp_c_112
_jana_atom_site_adp_c_113
_jana_atom_site_adp_c_122
_jana_atom_site_adp_c_123
_jana_atom_site_adp_c_133
_jana_atom_site_adp_c_222
_jana_atom_site_adp_c_223
_jana_atom_site_adp_c_233
_jana_atom_site_adp_c_333
O1 O -0.040(3) -0.035(3) 0.0047(5) -0.035(3) 0.0047(5) -0.00125(14) 0 0 0 0

#------------------------------------------------------------------------------
#$Date: 2023-12-06 13:08:03 +0000 (Wed, 06 Dec 2023) $
#$Revision: 288072 $
#$URL: svn://www.crystallography.net/cod/cif/1/54/73/1547356.cif $
#------------------------------------------------------------------------------
#
# This file is available in the Crystallography Open Database (COD),
# http://www.crystallography.net/
#
# All data on this site have been placed in the public domain by the
# contributors.
#
data_1547356
loop_
_publ_author_name
'Nobuo Ishizawa'
'Hayato Setoguchi'
'Kazumichi Yanagisawa'
_publ_section_title
;
 Structural evolution of calcite at high temperatures: Phase V unveiled
;
_journal_name_full               'Scientific Reports'
_journal_page_first              2832
_journal_paper_doi               10.1038/srep02832
_journal_volume                  3
_journal_year                    2013
_chemical_absolute_configuration .
_chemical_formula_sum            'C Ca O'
_chemical_formula_weight         68.1
_space_group_IT_number           167
_symmetry_cell_setting           trigonal
_symmetry_Int_Tables_number      167
_symmetry_space_group_name_Hall  '-R 3 2"c'
_symmetry_space_group_name_H-M   'R -3 c :H'
_cell_angle_alpha                90
_cell_angle_beta                 90
_cell_angle_gamma                120
_cell_formula_units_Z            36
_cell_length_a                   4.9752
_cell_length_b                   4.9752
_cell_length_c                   17.4450(4)
_cell_measurement_temperature    974
_cell_volume                     373.958(9)
_diffrn_ambient_temperature      974
_diffrn_measured_fraction_theta_full 1
_diffrn_measured_fraction_theta_max 1
_diffrn_measurement_device       'four-cycle diffractometer'
_diffrn_measurement_device_type  'Bruker CCD'
_diffrn_radiation_monochromator  graphite
_diffrn_radiation_probe          x-ray
_diffrn_radiation_source         'X-ray tube'
_diffrn_radiation_type           'Mo K\a'
_diffrn_radiation_wavelength     0.71073
_diffrn_reflns_av_R_equivalents  0.021
_diffrn_reflns_av_sigmaI/netI    0.0169
_diffrn_reflns_limit_h_max       8
_diffrn_reflns_limit_h_min       -7
_diffrn_reflns_limit_k_max       7
_diffrn_reflns_limit_k_min       -6
_diffrn_reflns_limit_l_max       30
_diffrn_reflns_limit_l_min       -30
_diffrn_reflns_number            1803
_diffrn_reflns_theta_full        40.03
_diffrn_reflns_theta_max         40.03
_diffrn_reflns_theta_min         5.28
_exptl_absorpt_coefficient_mu    12.842
_exptl_crystal_density_diffrn    10.8811
_exptl_crystal_F_000             300
_refine_diff_density_max         0.19
_refine_diff_density_min         -0.20
_refine_ls_extinction_coef       900(200)
_refine_ls_extinction_method
'B-C type 1 Gaussian isotropic (Becker & Coppens, 1974)'
_refine_ls_goodness_of_fit_gt    2.13
_refine_ls_goodness_of_fit_ref   1.94
_refine_ls_number_constraints    0
_refine_ls_number_parameters     15
_refine_ls_number_reflns         261
_refine_ls_number_restraints     0
_refine_ls_R_factor_all          0.0335
_refine_ls_R_factor_gt           0.0283
_refine_ls_shift/su_max          0.0054
_refine_ls_shift/su_mean         0.0018
_refine_ls_structure_factor_coef F
_refine_ls_weighting_details     w=1/(\s^2^(F)+0.0001F^2^)
_refine_ls_weighting_scheme      sigma
_refine_ls_wR_factor_gt          0.0320
_refine_ls_wR_factor_ref         0.0328
_reflns_number_gt                209
_reflns_number_total             261
_reflns_threshold_expression     I>3\s(I)
_cod_data_source_file            srep02832-s31.cif
_cod_data_source_block           974K_hs29_h680_I_anharm
_cod_depositor_comments
;
The following automatic conversions were performed:

'_diffrn_radiation_probe' value 'X-ray' changed to 'x-ray' according
to the built-in table from CIF Core dictionary named 'cif_core.dic'
version 2.4.1 from 2010-06-29.

Automatic conversion script
Id: cif_fix_values 5376 2017-05-30 11:51:03Z andrius 

The following automatic conversions were performed:

data name '_atom_site_site_symmetry_mutiplicity' was replaced with
'_atom_site_site_symmetry_multiplicity' as specified in the
replacement file 'data/replacement-values/replacement_tags.lst'.

Automatic conversion script
Id: cif_correct_tags 9268 2022-04-12 08:56:07Z antanas 
;
_cod_original_sg_symbol_Hall     '-R 3;-2"c'
_cod_original_sg_symbol_H-M      'R -3 c'
_cod_original_formula_sum        'C1 Ca1 O1'
_cod_database_code               1547356
loop_
_symmetry_equiv_pos_site_id
_symmetry_equiv_pos_as_xyz
1 x,y,z
2 -y,x-y,z
3 -x+y,-x,z
4 y,x,-z+1/2
5 x-y,-y,-z+1/2
6 -x,-x+y,-z+1/2
7 -x,-y,-z
8 y,-x+y,-z
9 x-y,x,-z
10 -y,-x,z+1/2
11 -x+y,y,z+1/2
12 x,x-y,z+1/2
13 x+2/3,y+1/3,z+1/3
14 -y+2/3,x-y+1/3,z+1/3
15 -x+y+2/3,-x+1/3,z+1/3
16 y+2/3,x+1/3,-z+5/6
17 x-y+2/3,-y+1/3,-z+5/6
18 -x+2/3,-x+y+1/3,-z+5/6
19 -x+2/3,-y+1/3,-z+1/3
20 y+2/3,-x+y+1/3,-z+1/3
21 x-y+2/3,x+1/3,-z+1/3
22 -y+2/3,-x+1/3,z+5/6
23 -x+y+2/3,y+1/3,z+5/6
24 x+2/3,x-y+1/3,z+5/6
25 x+1/3,y+2/3,z+2/3
26 -y+1/3,x-y+2/3,z+2/3
27 -x+y+1/3,-x+2/3,z+2/3
28 y+1/3,x+2/3,-z+1/6
29 x-y+1/3,-y+2/3,-z+1/6
30 -x+1/3,-x+y+2/3,-z+1/6
31 -x+1/3,-y+2/3,-z+2/3
32 y+1/3,-x+y+2/3,-z+2/3
33 x-y+1/3,x+2/3,-z+2/3
34 -y+1/3,-x+2/3,z+1/6
35 -x+y+1/3,y+2/3,z+1/6
36 x+1/3,x-y+2/3,z+1/6
loop_
_atom_site_label
_atom_site_type_symbol
_atom_site_fract_x
_atom_site_fract_y
_atom_site_fract_z
_atom_site_adp_type
_atom_site_U_iso_or_equiv
_atom_site_site_symmetry_multiplicity
_atom_site_occupancy
_atom_site_calc_flag
_atom_site_refinement_flags
_atom_site_disorder_assembly
_atom_site_disorder_group
Ca1 Ca 0 0 0 Uani 0.04046(15) 6 1 d . . .
C1 C 0 0 0.25 Uani 0.0343(4) 6 1 d . . .
O1 O 0.2489(5) 0 0.25 Uani 0.0730(6) 18 1 d . . .
loop_
_atom_site_aniso_label
_atom_site_aniso_type_symbol
_atom_site_aniso_U_11
_atom_site_aniso_U_22
_atom_site_aniso_U_33
_atom_site_aniso_U_12
_atom_site_aniso_U_13
_atom_site_aniso_U_23
Ca1 Ca 0.0417(2) 0.0417(2) 0.0379(2) 0.02087(10) 0 0
C1 C 0.0312(4) 0.0312(4) 0.0404(7) 0.0156(2) 0 0
O1 O 0.0496(4) 0.1013(11) 0.0852(8) 0.0506(6) -0.0203(4) -0.0405(8)
loop_
_atom_type_symbol
_atom_type_scat_dispersion_real
_atom_type_scat_dispersion_imag
_atom_type_scat_source
C 0.0033 0.0016 'International Tables Vol C tables 4.2.6.8 and 6.1.1.1'
Ca 0.2262 0.3064 'International Tables Vol C tables 4.2.6.8 and 6.1.1.1'
O 0.0106 0.0060 'International Tables Vol C tables 4.2.6.8 and 6.1.1.1'
loop_
_geom_bond_atom_site_label_1
_geom_bond_atom_site_label_2
_geom_bond_site_symmetry_1
_geom_bond_site_symmetry_2
_geom_bond_distance
Ca1 Ca1 . 16_444 4.08710(9)
Ca1 Ca1 . 16_454 4.08710(9)
Ca1 Ca1 . 16_554 4.08710(9)
Ca1 Ca1 . 28_445 4.08711(9)
Ca1 Ca1 . 28_545 4.08711(9)
Ca1 Ca1 . 28_555 4.08711(9)
Ca1 C1 . 25_444 3.21936(3)
Ca1 C1 . 25_544 3.21936(3)
Ca1 C1 . 25_554 3.21936(3)
Ca1 C1 . 19_445 3.21936(3)
Ca1 C1 . 19_455 3.21936(3)
Ca1 C1 . 19_555 3.21936(3)
Ca1 O1 . 25_444 2.3951(12)
Ca1 O1 . 26_544 2.3951(12)
Ca1 O1 . 27_554 2.3951(18)
Ca1 O1 . 19_555 2.3951(12)
Ca1 O1 . 20_455 2.3951(12)
Ca1 O1 . 21_445 2.3951(18)
C1 O1 . . 1.238(2)
C1 O1 . 2_555 1.238(2)
C1 O1 . 3_555 1.2385(16)
loop_
_refln_index_h
_refln_index_k
_refln_index_l
_refln_F_squared_calc
_refln_F_squared_meas
_refln_F_squared_sigma
_refln_observed_status
-1 2 0 4178.11 3838.46 82.54 o
0 3 0 3892.75 3972.12 66.15 o
-2 4 0 1771.89 1765.44 19.90 o
-1 5 0 719.60 700.93 5.96 o
-3 6 0 187.72 174.41 3.29 o
0 6 0 66.66 65.55 2.34 o
-2 7 0 90.04 84.15 1.54 o
-4 8 0 68.86 72.57 2.13 o
-1 8 0 24.98 28.11 1.79 o
-2 3 1 857.43 892.55 10.31 o
-1 4 1 4.61 4.49 0.22 o
-3 5 1 115.56 105.85 1.17 o
-5 6 1 6.92 8.49 0.53 o
-2 6 1 0.61 0.53 0.24 <
-4 7 1 8.40 10.22 0.58 o
-1 7 1 1.02 1.19 0.46 <
-6 8 1 0.55 0.46 0.45 <
-3 8 1 0.11 0.58 0.35 <
0 1 2 897.33 1037.58 22.35 o
-2 2 2 6906.81 7698.48 165.21 o
-1 3 2 2712.58 2762.74 31.11 o
-3 4 2 191.87 188.96 1.73 o
0 4 2 24.68 25.63 0.66 o
-5 5 2 140.00 132.10 2.44 o
-2 5 2 340.87 333.55 3.06 o
-4 6 2 154.87 150.88 2.12 o
-1 6 2 123.04 122.52 1.84 o
-6 7 2 17.90 20.64 1.11 o
-3 7 2 20.69 19.31 0.72 o
0 7 2 3.27 0.13 0.90 <
-5 8 2 1.65 1.04 0.37 <
-2 8 2 2.40 1.92 0.48 o
-1 2 3 2166.87 2402.68 29.77 o
-2 4 3 1.87 1.62 0.19 o
-4 5 3 15.36 14.62 0.43 o
-1 5 3 4.19 3.49 0.24 o
-3 6 3 3.02 3.19 0.32 o
-5 7 3 9.39 10.67 0.59 o
-2 7 3 5.24 6.07 0.46 o
-7 8 3 0.61 -0.11 0.77 <
-4 8 3 0.02 0.22 0.34 <
-1 8 3 0.36 0.11 0.85 <
-1 1 4 18885.10 18730.00 413.33 o
0 2 4 3429.70 3571.78 76.72 o
-2 3 4 1888.96 1973.13 20.25 o
-4 4 4 2139.12 2074.86 20.43 o
-1 4 4 2118.52 2107.99 15.78 o
-3 5 4 606.77 598.28 4.90 o
0 5 4 325.74 330.55 3.96 o
-5 6 4 97.81 93.58 1.67 o
-2 6 4 152.38 142.51 1.89 o
-7 7 4 43.36 42.66 2.72 o
-4 7 4 125.98 120.90 1.80 o
-1 7 4 57.89 57.84 1.55 o
-6 8 4 33.32 34.06 1.27 o
-3 8 4 48.61 49.11 1.25 o
-1 3 5 642.30 656.77 6.30 o
-3 4 5 25.78 25.63 0.53 o
-2 5 5 60.29 56.67 0.83 o
-4 6 5 0.52 0.40 0.22 <
-1 6 5 5.15 5.53 0.45 o
-6 7 5 1.41 1.63 0.56 <
-3 7 5 4.16 4.70 0.43 o
-5 8 5 0.01 -0.03 0.34 <
-2 8 5 0.46 0.05 0.35 <
0 0 6 771.71 1086.14 23.49 o
-1 2 6 4709.74 5083.24 69.08 o
-3 3 6 613.45 628.40 9.02 o
0 3 6 353.62 360.40 4.67 o
-2 4 6 587.86 574.29 5.11 o
-4 5 6 89.96 92.43 1.07 o
-1 5 6 144.43 141.04 1.43 o
-6 6 6 80.38 83.67 3.69 o
-3 6 6 143.57 141.48 1.89 o
0 6 6 45.09 44.67 1.54 o
-5 7 6 21.36 21.70 0.79 o
-2 7 6 20.33 21.55 0.79 o
-7 8 6 0.26 -0.14 0.83 <
-4 8 6 0.89 0.67 0.37 <
-1 8 6 1.11 1.30 1.04 <
-2 3 7 312.61 311.88 3.32 o
-1 4 7 1.22 1.33 0.16 o
-3 5 7 85.13 81.75 1.09 o
-5 6 7 6.05 6.15 0.45 o
-2 6 7 0.58 0.79 0.29 <
-4 7 7 6.28 5.90 0.46 o
-1 7 7 0.42 0.08 0.34 <
-6 8 7 0.41 -0.53 0.51 <
-3 8 7 0.30 -0.14 0.30 <
0 1 8 9692.35 10470.40 182.94 o
-2 2 8 1279.95 1358.17 24.02 o
-1 3 8 1701.03 1750.61 14.59 o
-3 4 8 1477.79 1474.66 14.41 o
0 4 8 1235.62 1261.50 14.50 o
-5 5 8 235.37 230.93 4.14 o
-2 5 8 357.78 376.60 3.71 o
-4 6 8 145.37 142.07 1.92 o
-1 6 8 97.84 98.74 1.68 o
-6 7 8 35.75 36.51 1.84 o
-3 7 8 92.59 87.37 1.49 o
0 7 8 31.60 34.63 1.97 o
-5 8 8 36.40 37.10 1.09 o
-2 8 8 21.75 23.09 0.99 o
-1 2 9 544.77 562.71 5.06 o
-2 4 9 1.51 1.51 0.18 o
-4 5 9 11.67 10.70 0.45 o
-1 5 9 0.02 0.14 0.16 <
-3 6 9 1.59 1.20 0.30 o
-5 7 9 7.35 8.53 0.53 o
-2 7 9 1.23 2.04 0.40 o
-4 8 9 0.04 -0.13 0.34 <
-1 1 10 1029.82 1055.66 17.75 o
0 2 10 1313.12 1367.21 16.26 o
-2 3 10 1208.25 1203.46 9.00 o
-4 4 10 15.46 16.12 0.69 o
-1 4 10 166.35 161.96 1.52 o
-3 5 10 153.32 151.14 1.84 o
0 5 10 67.35 69.98 1.43 o
-5 6 10 75.17 77.48 1.55 o
-2 6 10 91.08 89.76 1.57 o
-7 7 10 2.12 3.16 1.14 <
-4 7 10 9.13 8.25 0.54 o
-1 7 10 7.89 6.79 0.58 o
-6 8 10 1.48 1.01 0.72 <
-3 8 10 1.81 1.62 0.38 o
-1 3 11 159.10 156.46 1.52 o
-3 4 11 20.66 20.87 0.46 o
-2 5 11 12.89 12.74 0.46 o
-4 6 11 0.46 0.96 0.30 o
-1 6 11 2.44 3.04 0.43 o
-6 7 11 0.86 1.67 0.69 <
-3 7 11 0.58 0.35 0.30 <
-5 8 11 0.00 -0.16 0.37 <
-2 8 11 0.20 0.27 0.61 <
0 0 12 7078.88 4354.18 111.29 o
-1 2 12 1296.62 1341.00 8.69 o
-3 3 12 975.42 1006.06 8.99 o
0 3 12 1308.87 1306.21 14.91 o
-2 4 12 549.39 572.73 4.48 o
-4 5 12 313.20 318.93 3.46 o
-1 5 12 231.63 232.16 2.16 o
-6 6 12 20.01 23.43 2.04 o
-3 6 12 96.73 94.51 1.63 o
0 6 12 50.07 53.53 1.38 o
-5 7 12 39.81 40.02 1.07 o
-2 7 12 39.23 37.89 1.17 o
-4 8 12 26.60 28.16 1.09 o
-2 3 13 40.50 38.85 0.61 o
-1 4 13 3.07 3.32 0.26 o
-3 5 13 27.08 24.74 0.69 o
-5 6 13 3.24 3.67 0.50 o
-2 6 13 0.25 0.26 0.30 <
-4 7 13 1.98 2.36 0.38 o
-1 7 13 0.14 -0.32 0.38 <
-3 8 13 0.25 -0.22 0.51 <
0 1 14 437.41 413.69 4.13 o
-2 2 14 1001.79 1002.69 10.04 o
-1 3 14 371.03 366.87 3.14 o
-3 4 14 82.70 79.15 1.03 o
0 4 14 40.35 40.37 1.15 o
-5 5 14 46.56 38.40 2.48 o
-2 5 14 124.80 122.30 1.44 o
-4 6 14 32.14 34.76 1.04 o
-1 6 14 27.23 26.76 0.79 o
-6 7 14 7.56 7.45 1.51 o
-3 7 14 6.86 6.71 0.59 o
-1 2 15 59.63 57.17 0.61 o
-2 4 15 0.68 0.82 0.19 o
-4 5 15 2.86 3.69 0.43 o
-1 5 15 0.71 1.47 0.29 o
-3 6 15 0.51 0.18 0.35 <
-5 7 15 2.64 2.40 0.48 o
-2 7 15 0.11 1.01 0.43 <
-1 1 16 1165.45 1184.75 10.35 o
0 2 16 744.74 754.07 7.81 o
-2 3 16 374.89 376.96 2.98 o
-4 4 16 351.69 360.02 7.27 o
-1 4 16 316.69 316.27 3.03 o
-3 5 16 139.59 142.51 1.96 o
0 5 16 88.67 89.21 1.99 o
-5 6 16 27.83 29.86 1.36 o
-2 6 16 41.48 41.01 1.01 o
-4 7 16 34.99 35.77 1.17 o
-1 7 16 14.92 18.49 1.46 o
-1 3 17 19.54 20.10 0.45 o
-3 4 17 5.88 5.48 0.30 o
-2 5 17 1.36 0.95 0.26 o
-4 6 17 0.27 0.45 0.38 <
-1 6 17 0.70 0.83 0.34 <
-6 7 17 0.20 0.75 0.96 <
-3 7 17 0.00 0.30 0.42 <
0 0 18 132.54 121.23 2.47 o
-1 2 18 300.77 294.48 2.17 o
-3 3 18 98.83 102.52 1.44 o
0 3 18 61.96 59.90 1.17 o
-2 4 18 98.98 97.28 1.25 o
-4 5 18 19.65 21.44 0.83 o
-1 5 18 31.90 32.66 0.74 o
-6 6 18 14.56 13.97 1.83 o
-3 6 18 19.14 21.55 0.85 o
0 6 18 4.92 2.77 0.61 o
-5 7 18 3.77 4.68 0.77 o
-2 7 18 4.48 3.43 0.77 o
-2 3 19 2.50 2.29 0.22 o
-1 4 19 1.07 0.90 0.26 o
-3 5 19 4.26 4.25 0.40 o
-5 6 19 0.93 2.10 0.74 <
-2 6 19 0.04 0.38 0.30 <
-4 7 19 0.30 -0.08 0.61 <
0 1 20 457.35 459.39 3.77 o
-2 2 20 199.65 193.92 1.96 o
-1 3 20 205.77 203.17 1.81 o
-3 4 20 141.00 147.55 1.47 o
0 4 20 114.38 118.03 2.13 o
-5 5 20 30.51 33.48 2.58 o
-2 5 20 46.05 47.90 0.95 o
-4 6 20 27.19 30.95 1.22 o
-1 6 20 17.90 18.14 0.79 o
-1 2 21 4.07 3.59 0.24 o
-2 4 21 0.15 0.42 0.22 <
-4 5 21 0.25 0.14 0.40 <
-1 5 21 0.31 0.34 0.26 <
-3 6 21 0.11 -0.11 0.35 <
-1 1 22 102.81 102.17 1.23 o
0 2 22 69.31 67.86 1.23 o
-2 3 22 69.65 70.68 0.87 o
-4 4 22 9.46 9.36 0.77 o
-1 4 22 25.90 27.08 0.66 o
-3 5 22 15.81 17.96 0.64 o
0 5 22 6.14 6.30 0.64 o
-5 6 22 6.49 5.83 1.07 o
-2 6 22 8.33 9.41 0.62 o
-1 3 23 1.42 1.03 0.22 o
-3 4 23 0.76 0.74 0.24 o
-2 5 23 0.09 0.35 0.27 <
-4 6 23 0.07 0.51 0.69 <
0 0 24 182.49 178.11 3.05 o
-1 2 24 100.69 98.31 1.06 o
-3 3 24 65.61 64.66 1.52 o
0 3 24 74.80 76.12 1.41 o
-2 4 24 40.15 38.62 0.75 o
-4 5 24 21.31 21.60 0.96 o
-1 5 24 18.03 17.87 0.75 o
-2 3 25 0.07 0.00 0.22 <
-1 4 25 0.14 0.16 0.26 <
-3 5 25 0.34 0.72 0.32 <
0 1 26 31.91 31.07 0.72 o
-2 2 26 32.04 34.50 0.93 o
-1 3 26 18.61 19.54 0.56 o
-3 4 26 7.88 7.44 0.45 o
0 4 26 5.02 5.87 0.71 o
-2 5 26 6.94 7.37 0.62 o
-1 2 27 0.17 -0.02 0.21 <
-2 4 27 0.02 -0.05 0.27 <
-1 1 28 40.29 38.88 0.90 o
0 2 28 31.54 32.34 0.90 o
-2 3 28 20.63 20.03 0.62 o
-1 4 28 12.58 11.49 0.69 o
-1 3 29 0.06 0.24 0.34 <
0 0 30 9.88 11.15 0.88 o
-1 2 30 8.51 8.99 0.48 o
loop_
_jana_atom_site_adp_c_label
_jana_atom_site_adp_c_type_symbol
_jana_atom_site_adp_c_111
_jana_atom_site_adp_c_112
_jana_atom_site_adp_c_113
_jana_atom_site_adp_c_122
_jana_atom_site_adp_c_123
_jana_atom_site_adp_c_133
_jana_atom_site_adp_c_222
_jana_atom_site_adp_c_223
_jana_atom_site_adp_c_233
_jana_atom_site_adp_c_333
O1 O -0.051(5) -0.052(4) 0.0071(7) -0.052(4) 0.0071(7) -0.00189(19) 0 0 0 0

#------------------------------------------------------------------------------
#$Date: 2016-02-20 00:53:41 +0000 (Sat, 20 Feb 2016) $
#$Revision: 176768 $
#$URL: svn://www.crystallography.net/cod/cif/2/10/01/2100187.cif $
#------------------------------------------------------------------------------
#
# This file is available in the Crystallography Open Database (COD),
# http://www.crystallography.net/. The original data for this entry
# were provided by IUCr Journals, http://journals.iucr.org/.
#
# The file may be used within the scientific community so long as
# proper attribution is given to the journal article from which the
# data were obtained.
#
data_2100187
loop_
_publ_author_name
'Caspi, El'ad N.'
'Pokroy, Boaz'
'Lee, Peter L.'
'Quintana, John P.'
'Zolotoyabko, Emil'
_publ_section_title
;
 On the structure of aragonite
;
_journal_issue                   2
_journal_name_full               'Acta Crystallographica Section B'
_journal_page_first              129
_journal_page_last               132
_journal_paper_doi               10.1107/S0108768105005240
_journal_volume                  61
_journal_year                    2005
_chemical_formula_sum            'C Ca O3'
_chemical_formula_weight         100.09
_chemical_name_common            aragonite
_space_group_IT_number           62
_symmetry_cell_setting           orthorhombic
_symmetry_space_group_name_Hall  '-P 2n 2a'
_symmetry_space_group_name_H-M   'P m c n'
_cell_angle_alpha                90.0
_cell_angle_beta                 90.0
_cell_angle_gamma                90.0
_cell_formula_units_Z            4
_cell_length_a                   4.961830(13)
_cell_length_b                   7.96914(2)
_cell_length_c                   5.742852(15)
_cell_volume                     227.0811(10)
_diffrn_radiation_wavelength     0.49581
_cod_data_source_file            lc5015.cif
_cod_data_source_block           PMCN_SF43P_phase_1
_cod_original_cell_volume        227.0810(10)
_cod_database_code               2100187
loop_
_symmetry_equiv_pos_site_id
_symmetry_equiv_pos_as_xyz
1 +x,+y,+z
2 -x+1/2,+y,+z
3 +x,-y+1/2,+z+1/2
4 -x+1/2,-y+1/2,+z+1/2
-1 -x,-y,-z
-2 +x+1/2,-y,-z
-3 -x,+y+1/2,-z+1/2
-4 +x+1/2,+y+1/2,-z+1/2
loop_
_atom_site_aniso_label
_atom_site_aniso_U_11
_atom_site_aniso_U_22
_atom_site_aniso_U_33
_atom_site_aniso_U_12
_atom_site_aniso_U_13
_atom_site_aniso_U_23
Ca 0.00450(9) 0.00677(9) 0.01166(10) 0.0 0.0 -0.00195(14)
C 0.0198(6) 0.0210(6) 0.0049(5) 0.0 0.0 -0.0005(5)
O1 0.0127(4) 0.0033(3) 0.0188(4) 0.0 0.0 0.0037(3)
O2 0.0004(2) 0.0107(2) 0.0200(3) 0.00669(18) 0.0003(2) 0.0016(2)
loop_
_atom_site_label
_atom_site_fract_x
_atom_site_fract_y
_atom_site_fract_z
_atom_site_U_iso_or_equiv
_atom_site_thermal_displace_type
_atom_site_occupancy
_atom_site_type_symbol
Ca 0.25 0.41502(2) 0.75985(4) 0.00764 Uani 1.0 Ca
C 0.25 0.76194(12) -0.08240(14) 0.01523 Uani 1.0 C
O1 0.25 0.92238(8) -0.09453(8) 0.01161 Uani 1.0 O
O2 0.47499(7) 0.68012(5) -0.08725(7) 0.01035 Uani 1.0 O
loop_
_atom_type_symbol
Ca
C_
O_

#------------------------------------------------------------------------------
#$Date: 2017-10-15 01:23:08 +0100 (Sun, 15 Oct 2017) $
#$Revision: 202022 $
#$URL: svn://www.crystallography.net/cod/cif/2/10/01/2100189.cif $
#------------------------------------------------------------------------------
#
# This file is available in the Crystallography Open Database (COD),
# http://www.crystallography.net/. The original data for this entry
# were provided by IUCr Journals, http://journals.iucr.org/.
#
# The file may be used within the scientific community so long as
# proper attribution is given to the journal article from which the
# data were obtained.
#
data_2100189
loop_
_publ_author_name
'Caspi, El'ad N.'
'Pokroy, Boaz'
'Lee, Peter L.'
'Quintana, John P.'
'Zolotoyabko, Emil'
_publ_section_title
;
 On the structure of aragonite
;
_journal_issue                   2
_journal_name_full               'Acta Crystallographica Section B'
_journal_page_first              129
_journal_page_last               132
_journal_paper_doi               10.1107/S0108768105005240
_journal_volume                  61
_journal_year                    2005
_chemical_formula_sum            'C Ca O3'
_chemical_formula_weight         100.09
_chemical_name_systematic        ' ?'
_space_group_IT_number           167
_symmetry_cell_setting           trigonal
_symmetry_space_group_name_Hall  '-R 3 2"c'
_symmetry_space_group_name_H-M   'R -3 c :H'
_cell_angle_alpha                90.0
_cell_angle_beta                 90.0
_cell_angle_gamma                120.0
_cell_formula_units_Z            6
_cell_length_a                   4.9870(6)
_cell_length_b                   4.987
_cell_length_c                   17.058(2)
_cell_volume                     367.40(6)
_cod_data_source_file            lc5015.cif
_cod_data_source_block           PMCN_SF43P_phase_3
_cod_original_cell_volume        367.41(4)
_cod_original_sg_symbol_H-M      'R -3 c'
_cod_database_code               2100189
loop_
_symmetry_equiv_pos_site_id
_symmetry_equiv_pos_as_xyz
1 +x,+y,+z
2 -y,x-y,+z
3 y-x,-x,+z
4 y-x,+y,+z+1/2
5 -y,-x,+z+1/2
6 +x,x-y,+z+1/2
-1 -x,-y,-z
-2 +y,y-x,-z
-3 x-y,+x,-z
-4 x-y,-y,-z+1/2
-5 +y,+x,-z+1/2
-6 -x,y-x,-z+1/2
101 +x+1/3,+y+2/3,+z+2/3
102 -y+1/3,x-y+2/3,+z+2/3
103 y-x+1/3,-x+2/3,+z+2/3
104 y-x+1/3,+y+2/3,+z+1/6
105 -y+1/3,-x+2/3,+z+1/6
106 +x+1/3,x-y+2/3,+z+1/6
-101 -x+2/3,-y+1/3,-z+1/3
-102 +y+2/3,y-x+1/3,-z+1/3
-103 x-y+2/3,+x+1/3,-z+1/3
-104 x-y+2/3,-y+1/3,-z+5/6
-105 +y+2/3,+x+1/3,-z+5/6
-106 -x+2/3,y-x+1/3,-z+5/6
201 +x+2/3,+y+1/3,+z+1/3
202 -y+2/3,x-y+1/3,+z+1/3
203 y-x+2/3,-x+1/3,+z+1/3
204 y-x+2/3,+y+1/3,+z+5/6
205 -y+2/3,-x+1/3,+z+5/6
206 +x+2/3,x-y+1/3,+z+5/6
-201 -x+1/3,-y+2/3,-z+2/3
-202 +y+1/3,y-x+2/3,-z+2/3
-203 x-y+1/3,+x+2/3,-z+2/3
-204 x-y+1/3,-y+2/3,-z+1/6
-205 +y+1/3,+x+2/3,-z+1/6
-206 -x+1/3,y-x+2/3,-z+1/6
loop_
_atom_site_aniso_label
_atom_site_aniso_U_11
_atom_site_aniso_U_22
_atom_site_aniso_U_33
_atom_site_aniso_U_12
_atom_site_aniso_U_13
_atom_site_aniso_U_23
Ca1 0.0108 0.0108 0.0101 0.0054 0.0 0.0
C1 0.0094 0.0094 0.0111 0.0047 0.0 0.0
O1 0.0123 0.0234 0.021 0.0117 -0.0039 -0.0078
loop_
_atom_site_label
_atom_site_fract_x
_atom_site_fract_y
_atom_site_fract_z
_atom_site_U_iso_or_equiv
_atom_site_thermal_displace_type
_atom_site_occupancy
_atom_site_type_symbol
Ca1 0.0 0.0 0.0 0.01057 Uani 1.0 Ca
C1 0.0 0.0 0.25 0.00997 Uani 1.0 C
O1 0.2465(7) 0.0 0.25 0.01767 Uani 1.0 O
loop_
_atom_type_symbol
Ca
C_
O_
loop_
_cod_related_entry_id
_cod_related_entry_database
_cod_related_entry_code
1 MPOD 1000008

#------------------------------------------------------------------------------
#$Date: 2018-01-12 23:26:25 +0000 (Fri, 12 Jan 2018) $
#$Revision: 205135 $
#$URL: svn://www.crystallography.net/cod/cif/2/10/09/2100992.cif $
#------------------------------------------------------------------------------
#
# This file is available in the Crystallography Open Database (COD),
# http://www.crystallography.net/. The original data for this entry
# were provided by IUCr Journals, http://journals.iucr.org/.
#
# The file may be used within the scientific community so long as
# proper attribution is given to the journal article from which the
# data were obtained.
#
data_2100992
loop_
_publ_author_name
'Maslen, E. N.'
'Streltsov, V. A.'
'Streltsova, N. R.'
_publ_section_title
;
 X-ray study of the electron density in calcite, CaCo~3~
;
_journal_issue                   4
_journal_name_full               'Acta Crystallographica Section B'
_journal_page_first              636
_journal_page_last               641
_journal_paper_doi               10.1107/S0108768193002575
_journal_volume                  49
_journal_year                    1993
_chemical_formula_sum            'C Ca O3'
_chemical_formula_weight         100.09
_chemical_name_mineral           calcite
_space_group_crystal_system      trigonal
_space_group_IT_number           167
_space_group_name_Hall           '-R 3 2"c'
_space_group_name_H-M_alt        'R -3 c :H'
_cell_angle_alpha                90.0
_cell_angle_beta                 90.0
_cell_angle_gamma                120.0
_cell_formula_units_Z            6
_cell_length_a                   4.991(2)
_cell_length_b                   4.991(2)
_cell_length_c                   17.062(2)
_cell_volume                     368.1(3)
_diffrn_radiation_type           Mo
_diffrn_radiation_wavelength     0.71073
_exptl_absorpt_coefficient_mu    2.134
_exptl_crystal_density_diffrn    2.709
_exptl_crystal_F_000             300
_cod_data_source_file            as0621.cif
_cod_original_sg_symbol_H-M      'R -3 c {hexagonal axes}'
_cod_database_code               2100992
loop_
_space_group_symop_id
_space_group_symop_operation_xyz
1 x,y,z
2 -y,x-y,z
3 -x+y,-x,z
4 y,x,-z+1/2
5 -x,-x+y,-z+1/2
6 x-y,-y,-z+1/2
7 -x,-y,-z
8 y,-x+y,-z
9 x-y,x,-z
10 -y,-x,z+1/2
11 x,x-y,z+1/2
12 -x+y,y,z+1/2
13 x+2/3,y+1/3,z+1/3
14 -y+2/3,x-y+1/3,z+1/3
15 -x+y+2/3,-x+1/3,z+1/3
16 y+2/3,x+1/3,-z+5/6
17 -x+2/3,-x+y+1/3,-z+5/6
18 x-y+2/3,-y+1/3,-z+5/6
19 -x+2/3,-y+1/3,-z+1/3
20 y+2/3,-x+y+1/3,-z+1/3
21 x-y+2/3,x+1/3,-z+1/3
22 -y+2/3,-x+1/3,z+5/6
23 x+2/3,x-y+1/3,z+5/6
24 -x+y+2/3,y+1/3,z+5/6
25 x+1/3,y+2/3,z+2/3
26 -y+1/3,x-y+2/3,z+2/3
27 -x+y+1/3,-x+2/3,z+2/3
28 y+1/3,x+2/3,-z+1/6
29 -x+1/3,-x+y+2/3,-z+1/6
30 x-y+1/3,-y+2/3,-z+1/6
31 -x+1/3,-y+2/3,-z+2/3
32 y+1/3,-x+y+2/3,-z+2/3
33 x-y+1/3,x+2/3,-z+2/3
34 -y+1/3,-x+2/3,z+1/6
35 x+1/3,x-y+2/3,z+1/6
36 -x+y+1/3,y+2/3,z+1/6
loop_
_atom_site_label
_atom_site_fract_x
_atom_site_fract_y
_atom_site_fract_z
Ca .0 .0 .0
C .0 .0 .25
O .25729(19) .0 .25
loop_
_geom_bond_atom_site_label_1
_geom_bond_atom_site_label_2
_geom_bond_distance
C O 1.2841(11)
Ca O 2.3590(10)
O O1b 2.2242(16)
O O2c 3.1887(13)
O O3d 3.2604(17)
O O4e 3.4102(8)
loop_
_cod_related_entry_id
_cod_related_entry_database
_cod_related_entry_code
1 MPOD 1000132
2 MPOD 1000238
3 MPOD 1000270

#------------------------------------------------------------------------------
#$Date: 2022-09-14 17:38:48 +0100 (Wed, 14 Sep 2022) $
#$Revision: 277834 $
#$URL: svn://www.crystallography.net/cod/cif/2/10/31/2103119.cif $
#------------------------------------------------------------------------------
#
# This file is available in the Crystallography Open Database (COD),
# http://www.crystallography.net/. The original data for this entry
# were provided by IUCr Journals, http://journals.iucr.org/.
#
# The file may be used within the scientific community so long as
# proper attribution is given to the journal article from which the
# data were obtained.
#
data_2103119
loop_
_publ_author_name
'Bevan, D. J. M.'
'Rossmanith, Elisabeth'
'Mylrea, Darren K.'
'Ness, Sharon E.'
'Taylor, Max R.'
'Cuff, Chris'
_publ_section_title
;
 On the structure of aragonite -- Lawrence Bragg revisited
;
_journal_coden_ASTM              ASBSDK
_journal_issue                   3
_journal_name_full
;
 Acta Crystallographica, Section B: Structural Science
;
_journal_page_first              448
_journal_page_last               456
_journal_paper_doi               10.1107/S0108768102003294
_journal_volume                  58
_journal_year                    2002
_chemical_formula_moiety         'Ca1 C1 O3'
_chemical_formula_structural     'Ca (C O3)'
_chemical_formula_sum            'C Ca O3'
_chemical_formula_weight         100.08
_chemical_name_common            aragonite
_chemical_name_systematic        'calcium carbonate'
_space_group_IT_number           2
_space_group_name_Hall           '-P 1'
_space_group_name_H-M_alt        'P -1'
_symmetry_cell_setting           triclinic
_symmetry_space_group_name_Hall  '-P 1'
_symmetry_space_group_name_H-M   'P -1'
_cell_angle_alpha                89.999(4)
_cell_angle_beta                 90.012(5)
_cell_angle_gamma                89.996(4)
_cell_formula_units_Z            4
_cell_length_a                   5.7394(4)
_cell_length_b                   4.9616(2)
_cell_length_c                   7.9700(5)
_cell_measurement_reflns_used    25
_cell_measurement_temperature    293
_cell_measurement_theta_max      39.1
_cell_measurement_theta_min      22.4
_cell_volume                     226.96(2)
_computing_data_reduction        'xtal DIFDAT ABSORB ADDREF SORTRF'
_computing_molecular_graphics    'xtal PIG ORTEP'
_computing_publication_material  'xtal BONDLA CIFIO'
_computing_structure_refinement  'xtal LSLS'
_diffrn_measurement_device_type  CAD4
_diffrn_measurement_method       \q/2\q
_diffrn_radiation_type           'Mo K\a'
_diffrn_radiation_wavelength     .71073
_diffrn_reflns_av_R_equivalents  .02
_diffrn_reflns_limit_h_max       10
_diffrn_reflns_limit_h_min       -10
_diffrn_reflns_limit_k_max       8
_diffrn_reflns_limit_k_min       -8
_diffrn_reflns_limit_l_max       14
_diffrn_reflns_limit_l_min       -14
_diffrn_reflns_number            5690
_diffrn_reflns_theta_max         39.92
_diffrn_standards_decay_%        0
_diffrn_standards_interval_time  120
_diffrn_standards_number         3
_exptl_absorpt_coefficient_mu    2.468
_exptl_absorpt_correction_T_max  0.730
_exptl_absorpt_correction_T_min  0.675
_exptl_absorpt_correction_type   gaussian
_exptl_absorpt_process_details   '(Davenport et al., 1995)'
_exptl_crystal_colour            colourless
_exptl_crystal_density_diffrn    2.929
_exptl_crystal_density_meas      ?
_exptl_crystal_description       'hexagonal prism'
_exptl_crystal_size_max          0.54
_exptl_crystal_size_mid          0.15
_exptl_crystal_size_min          0.13
_refine_diff_density_max         2.14
_refine_diff_density_min         -1.89
_refine_ls_abs_structure_details none
_refine_ls_extinction_coef       87E1(6)
_refine_ls_extinction_method     '(Becker & Coppens, 1975)'
_refine_ls_goodness_of_fit_ref   1.81
_refine_ls_matrix_type           'Full matrix'
_refine_ls_number_parameters     32
_refine_ls_number_reflns         2750
_refine_ls_R_factor_gt           0.026
_refine_ls_shift/su_max          .0007
_refine_ls_structure_factor_coef Fsqd
_refine_ls_weighting_details
' w = 1/[\s^2^(F~o~^2^) + (0.04F~o~^2^)^2^]^1/2^'
_refine_ls_weighting_scheme      calc
_refine_ls_wR_factor_ref         0.056
_reflns_number_gt                2750
_reflns_number_total             2794
_reflns_threshold_expression     'Fsqd > 0'
_cod_data_source_file            br0111.cif
_cod_depositor_comments
;
The following automatic conversions were performed:
'_exptl_absorpt_correction_type' value 'Gaussian' changed to 'gaussian'
according to '/home/saulius/struct/CIF-dictionaries/cif_core.dic'
dictionary named 'cif_core.dic' version 2.4.1 from 2010-06-29.

Automatic conversion script
Id: cif_fix_enum 1527 2010-12-29 10:47:43Z saulius 
;
_cod_original_formula_sum        'C1 Ca1 O3'
_cod_database_code               2103119
loop_
_symmetry_equiv_pos_as_xyz
+x,+y,+z
-x,-y,-z
loop_
_atom_site_label
_atom_site_fract_x
_atom_site_fract_y
_atom_site_fract_z
_atom_site_U_iso_or_equiv
_atom_site_adp_type
_atom_site_occupancy
Ca1 .74101(3) .24923(5) .58465(2) .008421(18) Uani 1.00000
Ca2 .23969(3) .24995(5) .91478(2) .007976(18) Uani 1.00000
C1 .41592(16) .7540(2) .76281(10) .00583(8) Uani 1.00000
C2 .91378(16) .7482(2) .73876(10) .01006(9) Uani 1.00000
O1 .40398(12) .7519(2) .92178(8) .01237(8) Uani 1.00000
O2 .90486(12) .7500(2) .57719(8) .01184(8) Uani 1.00000
O3 .4128(2) .52529(17) .68209(10) .01140(8) Uani 1.00000
O4 .9109(2) .97523(17) .81800(10) .01231(9) Uani 1.00000
O5 .41298(18) .97498(16) .68004(10) .00951(8) Uani 1.00000
O6 .91495(18) .52853(15) .82219(9) .01270(9) Uani 1.00000
loop_
_atom_site_aniso_label
_atom_site_aniso_U_11
_atom_site_aniso_U_22
_atom_site_aniso_U_33
_atom_site_aniso_U_12
_atom_site_aniso_U_13
_atom_site_aniso_U_23
Ca1 .00775 .00883 .00823 .00018 -.00042 .00001
Ca2 .00770 .00886 .00827 .00014 -.00089 .00002
C1 .00562 .00814 .00955 .00012 -.00066 -.00024
C2 .00561 .00815 .00979 .00005 -.00069 .00008
O1 .01227 .01702 .00786 .00011 -.00115 -.00024
O2 .01222 .01733 .00781 .00013 -.00003 .00024
O3 .01243 .00842 .01373 .00026 .00033 -.00260
O4 .01265 .00818 .01348 -.00007 -.00187 -.00296
O5 .01254 .00848 .01406 .00004 .00055 .00294
O6 .01262 .00799 .01371 .00034 -.00178 .00269
loop_
_atom_type_symbol
_atom_type_scat_dispersion_real
_atom_type_scat_dispersion_imag
_atom_type_scat_source
Ca .203 .306 'Int. Tables Vol IV Tables 2.2B and 2.3.1'
C .002 .002 'Int. Tables Vol IV Tables 2.2B and 2.3.1'
O .008 .006 'Int. Tables Vol IV Tables 2.2B and 2.3.1'
loop_
_geom_angle_atom_site_label_1
_geom_angle_atom_site_label_2
_geom_angle_atom_site_label_3
_geom_angle_site_symmetry_1
_geom_angle_site_symmetry_3
_geom_angle
_geom_angle_publ_flag
O2 Ca1 O3 . . 75.94(3) ?
O2 Ca1 O6 . . 50.94(2) ?
O2 Ca1 O2 . '1 545' 138.40(3) ?
O2 Ca1 O4 . '1 545' 112.76(3) ?
O2 Ca1 O5 . '1 545' 143.14(3) ?
O2 Ca1 O3 . '2 666' 72.22(3) ?
O2 Ca1 O5 . '2 666' 120.89(2) ?
O2 Ca1 O2 . '2 766' 71.79(3) ?
O3 Ca1 O6 . . 76.25(3) ?
O3 Ca1 O2 . '1 545' 143.20(3) ?
O3 Ca1 O4 . '1 545' 111.53(3) ?
O3 Ca1 O5 . '1 545' 67.73(3) ?
O3 Ca1 O3 . '2 666' 75.78(3) ?
O3 Ca1 O5 . '2 666' 103.88(3) ?
O3 Ca1 O2 . '2 766' 144.73(3) ?
O6 Ca1 O2 . '1 545' 112.70(3) ?
O6 Ca1 O4 . '1 545' 65.85(3) ?
O6 Ca1 O5 . '1 545' 111.91(3) ?
O6 Ca1 O3 . '2 666' 120.94(3) ?
O6 Ca1 O5 . '2 666' 171.74(3) ?
O6 Ca1 O2 . '2 766' 93.81(3) ?
O2 Ca1 O4 '1 545' '1 545' 50.98(2) ?
O2 Ca1 O5 '1 545' '1 545' 76.11(3) ?
O2 Ca1 O3 '1 545' '2 666' 120.81(2) ?
O2 Ca1 O5 '1 545' '2 666' 72.29(3) ?
O2 Ca1 O2 '1 545' '2 766' 71.94(3) ?
O4 Ca1 O5 '1 545' '1 545' 76.48(3) ?
O4 Ca1 O3 '1 545' '2 666' 171.70(3) ?
O4 Ca1 O5 '1 545' '2 666' 120.95(3) ?
O4 Ca1 O2 '1 545' '2 766' 94.03(3) ?
O5 Ca1 O3 '1 545' '2 666' 103.66(3) ?
O5 Ca1 O5 '1 545' '2 666' 75.34(3) ?
O5 Ca1 O2 '1 545' '2 766' 144.88(3) ?
O3 Ca1 O5 '2 666' '2 666' 51.86(3) ?
O3 Ca1 O2 '2 666' '2 766' 81.10(3) ?
O5 Ca1 O2 '2 666' '2 766' 81.35(3) ?
O1 Ca2 O3 . . 50.66(2) ?
O1 Ca2 O4 . '1 445' 143.01(3) ?
O1 Ca2 O6 . '1 455' 75.32(3) ?
O1 Ca2 O1 . '1 545' 138.31(2) ?
O1 Ca2 O5 . '1 545' 112.46(3) ?
O1 Ca2 O1 . '2 667' 72.16(3) ?
O1 Ca2 O4 . '2 667' 120.73(2) ?
O1 Ca2 O6 . '2 667' 72.57(2) ?
O3 Ca2 O4 . '1 445' 112.03(3) ?
O3 Ca2 O6 . '1 455' 76.70(3) ?
O3 Ca2 O1 . '1 545' 112.53(3) ?
O3 Ca2 O5 . '1 545' 65.77(3) ?
O3 Ca2 O1 . '2 667' 93.73(3) ?
O3 Ca2 O4 . '2 667' 171.16(3) ?
O3 Ca2 O6 . '2 667' 121.02(3) ?
O4 Ca2 O6 '1 445' '1 455' 68.36(3) ?
O4 Ca2 O1 '1 445' '1 545' 76.21(3) ?
O4 Ca2 O5 '1 445' '1 545' 76.67(3) ?
O4 Ca2 O1 '1 445' '2 667' 144.67(3) ?
O4 Ca2 O4 '1 445' '2 667' 76.04(3) ?
O4 Ca2 O6 '1 445' '2 667' 103.43(3) ?
O6 Ca2 O1 '1 455' '1 545' 144.04(3) ?
O6 Ca2 O5 '1 455' '1 545' 112.61(3) ?
O6 Ca2 O1 '1 455' '2 667' 144.15(3) ?
O6 Ca2 O4 '1 455' '2 667' 103.99(3) ?
O6 Ca2 O6 '1 455' '2 667' 74.67(3) ?
O1 Ca2 O5 '1 545' '1 545' 50.90(2) ?
O1 Ca2 O1 '1 545' '2 667' 71.61(3) ?
O1 Ca2 O4 '1 545' '2 667' 72.22(3) ?
O1 Ca2 O6 '1 545' '2 667' 120.92(2) ?
O5 Ca2 O1 '1 545' '2 667' 93.66(3) ?
O5 Ca2 O4 '1 545' '2 667' 121.03(3) ?
O5 Ca2 O6 '1 545' '2 667' 171.73(3) ?
O1 Ca2 O4 '2 667' '2 667' 80.56(3) ?
O1 Ca2 O6 '2 667' '2 667' 81.51(3) ?
O4 Ca2 O6 '2 667' '2 667' 51.70(3) ?
O1 C1 O3 . . 119.00(10) yes
O1 C1 O5 . . 121.38(10) yes
O3 C1 O5 . . 119.40(8) yes
O2 C2 O4 . . 118.82(10) yes
O2 C2 O6 . . 121.77(10) yes
O4 C2 O6 . . 119.34(8) yes
Ca2 O1 C1 . . 90.33(7) ?
Ca2 O1 Ca2 . '1 565' 138.31(3) ?
Ca2 O1 Ca2 . '2 667' 107.84(4) ?
C1 O1 Ca2 . '1 565' 89.47(7) ?
C1 O1 Ca2 . '2 667' 119.39(6) ?
Ca2 O1 Ca2 '1 565' '2 667' 108.39(4) ?
Ca1 O2 C2 . . 89.15(7) ?
Ca1 O2 Ca1 . '1 565' 138.40(3) ?
Ca1 O2 Ca1 . '2 766' 108.21(4) ?
C2 O2 Ca1 . '1 565' 89.89(7) ?
C2 O2 Ca1 . '2 766' 120.13(6) ?
Ca1 O2 Ca1 '1 565' '2 766' 108.06(4) ?
Ca1 O3 Ca2 . . 103.53(3) ?
Ca1 O3 C1 . . 129.10(8) ?
Ca1 O3 Ca1 . '2 666' 104.22(3) ?
Ca2 O3 C1 . . 96.58(6) ?
Ca2 O3 Ca1 . '2 666' 135.69(5) ?
C1 O3 Ca1 . '2 666' 91.96(6) ?
C2 O4 Ca1 . '1 565' 96.64(6) ?
C2 O4 Ca2 . '1 665' 128.95(8) ?
C2 O4 Ca2 . '2 667' 91.75(6) ?
Ca1 O4 Ca2 '1 565' '1 665' 103.39(3) ?
Ca1 O4 Ca2 '1 565' '2 667' 136.50(5) ?
Ca2 O4 Ca2 '1 665' '2 667' 103.96(3) ?
C1 O5 Ca1 . '1 565' 128.85(8) ?
C1 O5 Ca2 . '1 565' 94.96(6) ?
C1 O5 Ca1 . '2 666' 93.28(6) ?
Ca1 O5 Ca2 '1 565' '1 565' 103.51(3) ?
Ca1 O5 Ca1 '1 565' '2 666' 104.66(3) ?
Ca2 O5 Ca1 '1 565' '2 666' 135.68(4) ?
Ca1 O6 C2 . . 94.31(6) ?
Ca1 O6 Ca2 . '1 655' 102.48(3) ?
Ca1 O6 Ca2 . '2 667' 135.61(4) ?
C2 O6 Ca2 . '1 655' 130.27(8) ?
C2 O6 Ca2 . '2 667' 93.38(6) ?
Ca2 O6 Ca2 '1 655' '2 667' 105.33(3) ?
loop_
_geom_bond_atom_site_label_1
_geom_bond_atom_site_label_2
_geom_bond_site_symmetry_2
_geom_bond_distance
_geom_bond_publ_flag
Ca1 O2 . 2.6572(11) yes
Ca1 O3 . 2.4553(10) yes
Ca1 O6 . 2.5496(8) yes
Ca1 O2 '1 545' 2.6503(11) yes
Ca1 O4 '1 545' 2.5013(9) yes
Ca1 O5 '1 545' 2.4444(10) yes
Ca1 O3 '2 666' 2.5592(9) yes
Ca1 O5 '2 666' 2.5433(9) yes
Ca1 O2 '2 766' 2.4074(7) yes
Ca2 O1 . 2.6638(11) yes
Ca2 O3 . 2.5086(9) yes
Ca2 O4 '1 445' 2.4524(10) yes
Ca2 O6 '1 455' 2.4347(10) yes
Ca2 O1 '1 545' 2.6453(11) yes
Ca2 O5 '1 545' 2.5202(9) yes
Ca2 O1 '2 667' 2.4245(7) yes
Ca2 O4 '2 667' 2.5557(9) yes
Ca2 O6 '2 667' 2.5281(8) yes
C1 O1 . 1.2690(10) yes
C1 O3 . 1.3044(13) yes
C1 O5 . 1.2798(13) yes
C2 O2 . 1.2888(10) yes
C2 O4 . 1.2917(14) yes
C2 O6 . 1.2766(13) yes

#------------------------------------------------------------------------------
#$Date: 2016-02-13 19:28:24 +0000 (Sat, 13 Feb 2016) $
#$Revision: 176429 $
#$URL: svn://www.crystallography.net/cod/cif/2/10/63/2106394.cif $
#------------------------------------------------------------------------------
#
# This file is available in the Crystallography Open Database (COD),
# http://www.crystallography.net/. The original data for this entry
# were provided by IUCr Journals, http://journals.iucr.org/.
#
# The file may be used within the scientific community so long as
# proper attribution is given to the journal article from which the
# data were obtained.
#
data_2106394
loop_
_publ_author_name
'Merrill, L.'
'Bassett, W.A.'
_publ_section_title
;
 Crystal structure of Ca C O3(II), a high-pressure metastable phase
 calcium carbonate
;
_journal_name_full               'Acta Crystallographica B (24,1968-38,1982)'
_journal_page_first              343
_journal_page_last               349
_journal_volume                  31
_journal_year                    1975
_chemical_formula_sum            'C Ca O3'
_chemical_name_systematic        'Ca (C O3)'
_space_group_IT_number           14
_symmetry_space_group_name_Hall  '-P 2ybc'
_symmetry_space_group_name_H-M   'P 1 21/c 1'
_cell_angle_alpha                90
_cell_angle_beta                 107.9
_cell_angle_gamma                90
_cell_formula_units_Z            4
_cell_length_a                   6.334
_cell_length_b                   4.948
_cell_length_c                   8.033
_cell_volume                     239.573
_citation_journal_id_ASTM        ACBCAR
_cod_data_source_file            Merrill_ACBCAR_1975_1168.cif
_cod_data_source_block           C1Ca1O3
_cod_original_cell_volume        239.5727
_cod_original_formula_sum        'C1 Ca1 O3'
_cod_database_code               2106394
loop_
_symmetry_equiv_pos_as_xyz
x,y,z
-x,y+1/2,-z+1/2
-x,-y,-z
x,-y-1/2,z-1/2
loop_
_atom_site_label
_atom_site_type_symbol
_atom_site_fract_x
_atom_site_fract_y
_atom_site_fract_z
_atom_site_occupancy
_atom_site_U_iso_or_equiv
C1 C+4 0.26 0.253 0.504 1 0.0
O1 O-2 0.38 0.156 0.637 1 0.0
O2 O-2 0.134 0.088 0.381 1 0.0
Ca1 Ca+2 0.234 0.738 0.217 1 0.0
O3 O-2 0.221 0.49 0.467 1 0.0

#------------------------------------------------------------------------------
#$Date: 2016-02-13 19:28:24 +0000 (Sat, 13 Feb 2016) $
#$Revision: 176429 $
#$URL: svn://www.crystallography.net/cod/cif/2/31/05/2310543.cif $
#------------------------------------------------------------------------------
#
# This file is available in the Crystallography Open Database (COD),
# http://www.crystallography.net/. The original data for this entry
# were provided by IUCr Journals, http://journals.iucr.org/.
#
# The file may be used within the scientific community so long as
# proper attribution is given to the journal article from which the
# data were obtained.
#
data_2310543
loop_
_publ_author_name
'Chessin, H.'
'Post, B.'
'Hamilton, W.C.'
_publ_section_title
;
 Position and termal parameters of oxygen atoms in calcite
;
_journal_name_full               'Acta Crystallographica (1,1948-23,1967)'
_journal_page_first              689
_journal_page_last               693
_journal_volume                  18
_journal_year                    1965
_chemical_formula_sum            'C Ca O3'
_chemical_name_systematic        'Ca (C O3)'
_space_group_IT_number           167
_symmetry_space_group_name_Hall  '-R 3 2"c'
_symmetry_space_group_name_H-M   'R -3 c :H'
_cell_angle_alpha                90
_cell_angle_beta                 90
_cell_angle_gamma                120
_cell_formula_units_Z            6
_cell_length_a                   4.991
_cell_length_b                   4.991
_cell_length_c                   16.9719
_cell_volume                     366.131
_citation_journal_id_ASTM        ACCRA9
_cod_data_source_file            Chessin_ACCRA9_1965_1880.cif
_cod_data_source_block           C1Ca1O3
_cod_original_cell_volume        366.1308
_cod_original_formula_sum        'C1 Ca1 O3'
_cod_database_code               2310543
loop_
_symmetry_equiv_pos_as_xyz
x,y,z
-y,x-y,z
-x+y,-x,z
y,x,-z+1/2
-x,-x+y,-z+1/2
x-y,-y,-z+1/2
-x,-y,-z
y,-x+y,-z
x-y,x,-z
-y,-x,z-1/2
x,x-y,z-1/2
-x+y,y,z-1/2
x+2/3,y+1/3,z+1/3
-y+2/3,x-y+1/3,z+1/3
-x+y+2/3,-x+1/3,z+1/3
y+2/3,x+1/3,-z+5/6
-x+2/3,-x+y+1/3,-z+5/6
x-y+2/3,-y+1/3,-z+5/6
-x+2/3,-y+1/3,-z+1/3
y+2/3,-x+y+1/3,-z+1/3
x-y+2/3,x+1/3,-z+1/3
-y+2/3,-x+1/3,z-1/6
x+2/3,x-y+1/3,z-1/6
-x+y+2/3,y+1/3,z-1/6
x+1/3,y+2/3,z+2/3
-y+1/3,x-y+2/3,z+2/3
-x+y+1/3,-x+2/3,z+2/3
y+1/3,x+2/3,-z+7/6
-x+1/3,-x+y+2/3,-z+7/6
x-y+1/3,-y+2/3,-z+7/6
-x+1/3,-y+2/3,-z+2/3
y+1/3,-x+y+2/3,-z+2/3
x-y+1/3,x+2/3,-z+2/3
-y+1/3,-x+2/3,z+1/6
x+1/3,x-y+2/3,z+1/6
-x+y+1/3,y+2/3,z+1/6
loop_
_atom_site_label
_atom_site_type_symbol
_atom_site_fract_x
_atom_site_fract_y
_atom_site_fract_z
_atom_site_occupancy
_atom_site_U_iso_or_equiv
C1 C+4 0 0 0.25 1 0.0
Ca1 Ca+2 0 0 0 1 0.0
O1 O-2 0.25708 0 0.25 1 0.0

#------------------------------------------------------------------------------
#$Date: 2023-03-26 09:09:57 +0100 (Sun, 26 Mar 2023) $
#$Revision: 282068 $
#$URL: svn://www.crystallography.net/cod/cif/3/00/00/3000000.cif $
#------------------------------------------------------------------------------
#
# This file is available in the Crystallography Open Database (COD),
# http://www.crystallography.net/
#
# All data on this site have been placed in the public domain by the
# contributors.
#
data_3000000
loop_
_publ_author_name
'Armel Le Bail'
'Salim Ouhenia'
'Daniel Chateigner'
_publ_section_title
;
 Microtwinning hypothesis for a more ordered vaterite model
;
_journal_name_full               'Powder Diffraction'
_journal_page_first              16
_journal_page_last               21
_journal_paper_doi               10.1154/1.3552994
_journal_volume                  26
_journal_year                    2011
_chemical_compound_source        Synthetic
_chemical_formula_sum            'C Ca O3'
_chemical_name_mineral           Vaterite
_space_group_IT_number           40
_symmetry_cell_setting           orthorhombic
_symmetry_space_group_name_Hall  'A 2 -2a'
_symmetry_space_group_name_H-M   'A m a 2'
_cell_angle_alpha                90.00000
_cell_angle_beta                 90.00000
_cell_angle_gamma                90.00000
_cell_formula_units_Z            4
_cell_length_a                   8.4721(5)
_cell_length_b                   7.1575(7)
_cell_length_c                   4.1265(4)
_cell_measurement_temperature    293
_cell_volume                     250.23(4)
_computing_structure_refinement  FULLPROF
_computing_structure_solution    ESPOIR
_database_code_amcsd             0019019
_diffrn_radiation_monochromator  graphite
_diffrn_radiation_type           X-ray
_diffrn_source                   'X-ray tube'
_diffrn_source_target            Cu
_exptl_crystal_density_diffrn    2.657
_pd_meas_2theta_range_inc        0.016711
_pd_meas_2theta_range_max        120.00000
_pd_meas_2theta_range_min        15.00000
_pd_meas_number_of_points        6284
_pd_proc_2theta_range_inc        0.016711
_pd_proc_2theta_range_max        120.0309
_pd_proc_2theta_range_min        15.0309
_pd_proc_wavelength              1.540560
_refine_ls_number_parameters     64
_refine_ls_number_reflns         291
_refine_ls_number_restraints     6
_refine_ls_R_I_factor            5.2218
_journal_article_reference       'DOI: 10.1154/1.3552994'
_cod_data_source_file            vat-5.cif
_cod_data_source_block           vaterite
_cod_depositor_comments
;
The following automatic conversions were performed:

'_symmetry_cell_setting' value 'Orthorhombic' changed to
'orthorhombic' according to the built-in table from CIF Core
dictionary named 'cif_core.dic' version 2.4.1 from 2010-06-29.

Automatic conversion script
Id: cif_fix_values 1715 2011-07-08 13:25:40Z adriana 

 Releasing structure 3000000 into public domain as published material.
;
_cod_database_code               3000000
loop_
_space_group_symop_operation_xyz
x,y,z
-x+1/2,y,z
x+1/2,-y,z
-x,-y,z
x,y+1/2,z+1/2
-x+1/2,y+1/2,z+1/2
x+1/2,-y+1/2,z+1/2
-x,-y+1/2,z+1/2
loop_
_atom_site_label
_atom_site_fract_x
_atom_site_fract_y
_atom_site_fract_z
_atom_site_U_iso_or_equiv
_atom_site_occupancy
_atom_site_adp_type
_atom_site_type_symbol
Ca 0.50000 0.50000 0.00000 0.0235(4) 1.00000 Uiso Ca
C 0.25000 0.640(3) 0.452(4) 0.0396(10) 1.00000 Uiso C
O1 0.3795(2) 0.6711(16) 0.5636(17) 0.0396(10) 1.00000 Uiso O
O2 0.25000 0.5432(12) 0.1912(14) 0.0396(10) 1.00000 Uiso O
loop_
_atom_type_symbol
_atom_type_scat_Cromer_Mann_a1
_atom_type_scat_Cromer_Mann_b1
_atom_type_scat_Cromer_Mann_a2
_atom_type_scat_Cromer_Mann_b2
_atom_type_scat_Cromer_Mann_a3
_atom_type_scat_Cromer_Mann_b3
_atom_type_scat_Cromer_Mann_a4
_atom_type_scat_Cromer_Mann_b4
_atom_type_scat_Cromer_Mann_c
_atom_type_scat_dispersion_real
_atom_type_scat_dispersion_imag
_atom_type_scat_source
ca 8.62660 10.44210 7.38730 0.65990 1.58990 85.74840 1.02110 178.43700 1.37510
0.34100 1.28600
International_Tables_for_Crystallography_Vol.C(1991)_Tables_6.1.1.4_and_6.1.1.5
c 2.31000 20.84390 1.02000 10.20750 1.58860 0.56870 0.86500 51.65120 0.21560
0.01700 0.00900
International_Tables_for_Crystallography_Vol.C(1991)_Tables_6.1.1.4_and_6.1.1.5
o 3.04850 13.27710 2.28680 5.70110 1.54630 0.32390 0.86700 32.90890 0.25080
0.04700 0.03200
International_Tables_for_Crystallography_Vol.C(1991)_Tables_6.1.1.4_and_6.1.1.5
loop_
_geom_angle_atom_site_label_1
_geom_angle_atom_site_label_2
_geom_angle_atom_site_label_3
_geom_angle
_geom_angle_site_symmetry_1
_geom_angle_site_symmetry_3
O1 Ca O1 104.0(4) 7_554 8_555
O1 Ca O1 83.0(5) 7_554 9_664
O1 Ca O1 172.9(5) 7_554 10_665
O1 Ca O1 111.9(6) 7_554 11_555
O1 Ca O1 77.3(4) 7_554 12_675
O1 Ca O2 78.2(3) 7_554 13_555
O1 Ca O2 136.2(4) 7_554 14_665
O1 Ca O1 99.7(6) 8_555 11_555
O1 Ca O1 70.3(4) 8_555 12_675
O1 Ca O2 47.1(2) 8_555 13_555
O1 Ca O2 96.3(3) 8_555 14_665
O1 Ca O1 168.3(7) 11_555 12_675
O1 Ca O2 73.8(4) 11_555 13_555
O1 Ca O2 102.0(4) 11_555 14_665
O2 Ca O2 139.53(12) 13_555 14_665
O1 C O1 130.0(6) 7_555 8_655
O1 C O2 114.8(12) 7_555 9_555
loop_
_geom_bond_atom_site_label_1
_geom_bond_atom_site_label_2
_geom_bond_distance
_geom_bond_site_symmetry_2
Ca O2 2.281(2) .
Ca O1 2.405(8) 1_554
Ca O1 2.579(10) 5_544
Ca O1 2.820(8) .
C O1 1.211(8) .
C O2 1.280(19) .
O1 O2 2.098(9) .
O1 O1 2.194(2) 2_555
O1 O1 3.189(13) 4_665
O1 O1 3.115(9) 8_664
O1 O2 2.958(9) 1_556
O1 O2 2.928(13) 5_555
loop_
_cod_related_entry_id
_cod_related_entry_database
_cod_related_entry_code
1 AMCSD 0019019

#------------------------------------------------------------------------------
#$Date: 2016-03-20 23:21:50 +0000 (Sun, 20 Mar 2016) $
#$Revision: 178377 $
#$URL: svn://www.crystallography.net/cod/cif/4/00/13/4001361.cif $
#------------------------------------------------------------------------------
#
# This file is available in the Crystallography Open Database (COD),
# http://www.crystallography.net/
#
# All data on this site have been placed in the public domain by the
# contributors.
#
data_4001361
loop_
_publ_author_name
'Pokroy, B.'
'Fieramosca, J. S.'
'Von Dreele, R. B.'
'Fitch, A. N.'
'Caspi, E. N.'
'Zolotoyabko, E.'
_publ_section_title
;
 Atomic Structure of Biogenic Aragonite
;
_journal_issue                   13
_journal_name_full               'Chemistry of Materials'
_journal_page_first              3244
_journal_paper_doi               10.1021/cm070187u
_journal_volume                  19
_journal_year                    2007
_chemical_formula_sum            'C Ca O3'
_chemical_formula_weight         100.09
_chemical_name_systematic        ' ?'
_space_group_IT_number           62
_symmetry_cell_setting           orthorhombic
_symmetry_space_group_name_Hall  '-P 2n 2a'
_symmetry_space_group_name_H-M   'P m c n'
_cell_angle_alpha                90.0
_cell_angle_beta                 90.0
_cell_angle_gamma                90.0
_cell_formula_units_Z            4
_cell_length_a                   4.96524(6)
_cell_length_b                   7.96358(10)
_cell_length_c                   5.74840(5)
_cell_volume                     227.298(4)
_pd_block_id                     2006-12-29T15:03|24314_LIJ_phase1|El'ad_Caspi||
_pd_phase_name                   CaCO3
_cod_data_source_file            cm070187usi20070121_043550.cif
_cod_data_source_block           24314_LIJ_phase_1
_cod_depositor_comments
;
The following automatic conversions were performed:

'_geom_bond_publ_flag' value 'N' changed to 'n' according to
/home/saulius/struct/CIF-dictionaries/cif_core.dic dictionary named
'cif_core.dic' version 2.4.1 from 2010-06-29 (34
times).

'_geom_angle_publ_flag' value 'N' changed to 'n' according
to /home/saulius/struct/CIF-dictionaries/cif_core.dic dictionary
named 'cif_core.dic' version 2.4.1 from 2010-06-29 (70 times).

Automatic conversion script
Id: cif_fix_values 1715 2011-07-08 13:25:40Z adriana 
;
_cod_original_cell_volume        227.2980(30)
_cod_database_code               4001361
loop_
_symmetry_equiv_pos_site_id
_symmetry_equiv_pos_as_xyz
1 +x,+y,+z
2 -x+1/2,+y,+z
3 +x,-y+1/2,+z+1/2
4 -x+1/2,-y+1/2,+z+1/2
-1 -x,-y,-z
-2 +x+1/2,-y,-z
-3 -x,+y+1/2,-z+1/2
-4 +x+1/2,+y+1/2,-z+1/2
loop_
_atom_site_aniso_label
_atom_site_aniso_U_11
_atom_site_aniso_U_12
_atom_site_aniso_U_13
_atom_site_aniso_U_22
_atom_site_aniso_U_23
_atom_site_aniso_U_33
Ca 0.0103(7) 0.0 0.0 0.0111(8) 0.0023(5) 0.0057(7)
C 0.0063(4) 0.0 0.0 0.0068(4) -0.0001(5) 0.0066(5)
O1 0.0199(8) 0.0 0.0 0.0050(5) 0.0002(5) 0.0110(6)
O2 0.0082(4) 0.00309(29) -0.0006(4) 0.0123(4) 0.0018(4) 0.0110(4)
loop_
_atom_site_type_symbol
_atom_site_label
_atom_site_fract_x
_atom_site_fract_y
_atom_site_fract_z
_atom_site_occupancy
_atom_site_thermal_displace_type
_atom_site_U_iso_or_equiv
_atom_site_symmetry_multiplicity
Ca Ca 0.25 0.41507(20) 0.76072(28) 1.0 Uani 0.00903 4
C C 0.25 0.76200(11) -0.08489(20) 1.0 Uani 0.0066 4
O O1 0.25 0.92261(14) -0.09420(26) 1.0 Uani 0.01198 4
O O2 0.47325(16) 0.68120(10) -0.08710(21) 1.0 Uani 0.01049 8
loop_
_atom_type_symbol
_atom_type_number_in_cell
Ca 4.0
C 4.0
O 12.0
loop_
_geom_angle_atom_site_label_1
_geom_angle_atom_site_label_2
_geom_angle_atom_site_label_3
_geom_angle
_geom_angle_site_symmetry_1
_geom_angle_site_symmetry_3
_geom_angle_publ_flag
Ca Ca Ca 95.10(7) 3_554 3_555 n
Ca Ca O1 74.808(34) 3_554 3_565 n
Ca Ca O1 75.51(4) 3_554 -3_445 n
Ca Ca O1 75.51(4) 3_554 -3_545 n
Ca Ca O2 144.60(5) 3_554 1_556 n
Ca Ca O2 144.60(5) 3_554 2_556 n
Ca Ca O2 110.73(7) 3_554 -1_666 n
Ca Ca O2 110.73(7) 3_554 -2_566 n
Ca Ca O2 37.73(4) 3_554 -3_656 n
Ca Ca O2 37.73(4) 3_554 -4_556 n
Ca Ca O1 169.91(8) 3_555 3_565 n
Ca Ca O1 106.30(5) 3_555 -3_445 n
Ca Ca O1 106.30(5) 3_555 -3_545 n
Ca Ca O2 107.95(4) 3_555 1_556 n
Ca Ca O2 107.95(4) 3_555 2_556 n
Ca Ca O2 39.043(24) 3_555 -1_666 n
Ca Ca O2 39.043(24) 3_555 -2_566 n
Ca Ca O2 78.08(6) 3_555 -3_656 n
Ca Ca O2 78.08(6) 3_555 -4_556 n
O1 Ca O1 71.59(5) 3_565 -3_445 n
O1 Ca O1 71.59(5) 3_565 -3_545 n
O1 Ca O2 81.07(6) 3_565 1_556 n
O1 Ca O2 81.07(6) 3_565 2_556 n
O1 Ca O2 144.567(35) 3_565 -1_666 n
O1 Ca O2 144.567(35) 3_565 -2_566 n
O1 Ca O2 93.50(6) 3_565 -3_656 n
O1 Ca O2 93.50(6) 3_565 -4_556 n
O1 Ca O1 137.75(10) -3_445 -3_545 n
O1 Ca O2 120.72(6) -3_556 1_556 n
O1 Ca O2 72.47(4) -3_556 2_556 n
O1 Ca O2 143.72(7) -3_556 -1_666 n
O1 Ca O2 76.07(4) -3_556 -2_566 n
O1 Ca O2 112.51(7) -3_556 -3_656 n
O1 Ca O2 50.633(35) -3_556 -4_556 n
O1 Ca O2 72.47(4) -3_656 1_556 n
O1 Ca O2 120.72(6) -3_656 2_556 n
O1 Ca O2 76.07(4) -3_656 -1_666 n
O1 Ca O2 143.72(7) -3_656 -2_566 n
O1 Ca O2 50.633(35) -3_656 -3_656 n
O1 Ca O2 112.51(7) -3_656 -4_556 n
O2 Ca O2 51.60(5) 1_556 2_556 n
O2 Ca O2 75.71(5) 1_556 -1_666 n
O2 Ca O2 103.98(6) 1_556 -2_566 n
O2 Ca O2 120.906(14) 1_556 -3_656 n
O2 Ca O2 171.20(6) 1_556 -4_556 n
O2 Ca O2 103.98(6) 2_556 -1_666 n
O2 Ca O2 75.71(5) 2_556 -2_566 n
O2 Ca O2 171.20(6) 2_556 -3_656 n
O2 Ca O2 120.906(14) 2_556 -4_556 n
O2 Ca O2 68.27(6) -1_666 -2_566 n
O2 Ca O2 76.47(4) -1_666 -3_656 n
O2 Ca O2 112.21(6) -1_666 -4_556 n
O2 Ca O2 112.21(6) -2_566 -3_656 n
O2 Ca O2 76.47(4) -2_566 -4_556 n
O2 Ca O2 66.07(5) -3_656 -4_556 n
O1 C O2 120.07(6) 1_555 1_555 n
O1 C O2 120.07(6) 1_555 2_555 n
O2 C O2 119.72(11) 1_555 2_555 n
Ca O1 Ca 108.41(5) 3_564 -3_466 n
Ca O1 Ca 108.41(5) 3_564 -3_566 n
Ca O1 C 119.96(11) 3_564 1_555 n
Ca O1 Ca 137.75(10) -3_466 -3_566 n
Ca O1 C 89.57(5) -3_555 1_555 n
Ca O1 C 89.57(5) -3_655 1_555 n
Ca O2 Ca 104.29(5) 1_554 -1_666 n
Ca O2 Ca 135.74(5) 1_554 -3_566 n
Ca O2 C 92.56(7) 1_554 1_555 n
Ca O2 Ca 103.23(5) -1_666 -3_566 n
Ca O2 C 129.41(12) -1_666 1_555 n
Ca O2 C 96.00(7) -3_655 1_555 n
loop_
_geom_bond_atom_site_label_1
_geom_bond_atom_site_label_2
_geom_bond_distance
_geom_bond_site_symmetry_2
_geom_bond_publ_flag
Ca Ca 3.8953(22) 3_554 n
Ca Ca 3.8953(22) 3_555 n
Ca Ca 4.1204(25) -1_566 n
Ca Ca 3.9448(26) -1_567 n
Ca Ca 4.1204(25) -1_666 n
Ca Ca 3.9448(26) -1_667 n
Ca C 2.9018(19) 1_556 n
Ca C 3.2497(19) 3_565 n
Ca C 2.9446(10) -3_545 n
Ca C 2.9446(10) -3_645 n
Ca O1 2.4152(19) 3_565 n
Ca O1 2.6614(9) -3_545 n
Ca O1 2.6614(9) -3_645 n
Ca O2 2.5467(17) 1_556 n
Ca O2 2.5467(17) 2_556 n
Ca O2 2.4487(17) -1_666 n
Ca O2 2.4487(17) -2_466 n
Ca O2 2.5205(17) -3_645 n
Ca O2 2.5205(17) -4_445 n
C Ca 2.9018(19) 1_554 n
C Ca 3.2497(19) 3_564 n
C Ca 2.9446(10) -3_555 n
C Ca 2.9446(10) -3_655 n
C O1 1.2802(14) 1_555 n
C O2 1.2818(9) 1_555 n
C O2 1.2818(9) 2_555 n
O1 Ca 2.4152(19) 3_564 n
O1 Ca 2.6614(9) -3_555 n
O1 Ca 2.6614(9) -3_655 n
O1 C 1.2802(14) 1_555 n
O2 Ca 2.5467(17) 1_554 n
O2 Ca 2.4487(17) -1_666 n
O2 Ca 2.5205(17) -3_655 n
O2 C 1.2818(9) 1_555 n
loop_
_pd_block_diffractogram_id
2006-12-29T15:03|24314_LIJ_H_01|El'ad_Caspi|SEPD

#------------------------------------------------------------------------------
#$Date: 2016-03-20 23:21:50 +0000 (Sun, 20 Mar 2016) $
#$Revision: 178377 $
#$URL: svn://www.crystallography.net/cod/cif/4/00/13/4001363.cif $
#------------------------------------------------------------------------------
#
# This file is available in the Crystallography Open Database (COD),
# http://www.crystallography.net/
#
# All data on this site have been placed in the public domain by the
# contributors.
#
data_4001363
loop_
_publ_author_name
'Pokroy, B.'
'Fieramosca, J. S.'
'Von Dreele, R. B.'
'Fitch, A. N.'
'Caspi, E. N.'
'Zolotoyabko, E.'
_publ_section_title
;
 Atomic Structure of Biogenic Aragonite
;
_journal_issue                   13
_journal_name_full               'Chemistry of Materials'
_journal_page_first              3244
_journal_paper_doi               10.1021/cm070187u
_journal_volume                  19
_journal_year                    2007
_chemical_formula_sum            'C Ca O3'
_chemical_formula_weight         100.09
_chemical_name_systematic        ' ?'
_space_group_IT_number           62
_symmetry_cell_setting           orthorhombic
_symmetry_space_group_name_Hall  '-P 2n 2a'
_symmetry_space_group_name_H-M   'P m c n'
_cell_angle_alpha                90.0
_cell_angle_beta                 90.0
_cell_angle_gamma                90.0
_cell_formula_units_Z            4
_cell_length_a                   4.96259(5)
_cell_length_b                   7.96782(8)
_cell_length_c                   5.74186(4)
_cell_volume                     227.039(4)
_pd_block_id                     2006-12-28T18:36|24313_LIJ_phase1|El'ad_Caspi||
_pd_phase_name                   CaCO3
_cod_data_source_file            cm070187usi20070121_043640.cif
_cod_data_source_block           24313_LIJ_phase_1
_cod_depositor_comments
;
The following automatic conversions were performed:

'_geom_bond_publ_flag' value 'N' changed to 'n' according to
/home/saulius/struct/CIF-dictionaries/cif_core.dic dictionary named
'cif_core.dic' version 2.4.1 from 2010-06-29 (34
times).

'_geom_angle_publ_flag' value 'N' changed to 'n' according
to /home/saulius/struct/CIF-dictionaries/cif_core.dic dictionary
named 'cif_core.dic' version 2.4.1 from 2010-06-29 (70 times).

Automatic conversion script
Id: cif_fix_values 1715 2011-07-08 13:25:40Z adriana 
;
_cod_original_cell_volume        227.0390(30)
_cod_database_code               4001363
loop_
_symmetry_equiv_pos_site_id
_symmetry_equiv_pos_as_xyz
1 +x,+y,+z
2 -x+1/2,+y,+z
3 +x,-y+1/2,+z+1/2
4 -x+1/2,-y+1/2,+z+1/2
-1 -x,-y,-z
-2 +x+1/2,-y,-z
-3 -x,+y+1/2,-z+1/2
-4 +x+1/2,+y+1/2,-z+1/2
loop_
_atom_site_aniso_label
_atom_site_aniso_U_11
_atom_site_aniso_U_12
_atom_site_aniso_U_13
_atom_site_aniso_U_22
_atom_site_aniso_U_23
_atom_site_aniso_U_33
Ca 0.0146(9) 0.0 0.0 0.0116(9) 0.0006(6) 0.0063(7)
C 0.0081(5) 0.0 0.0 0.0105(6) 0.0003(6) 0.0076(5)
O1 0.0202(8) 0.0 0.0 0.0110(6) 0.0002(6) 0.0082(6)
O2 0.0092(5) 0.00202(33) -0.0014(4) 0.0147(5) 0.0015(4) 0.0112(4)
loop_
_atom_site_type_symbol
_atom_site_label
_atom_site_fract_x
_atom_site_fract_y
_atom_site_fract_z
_atom_site_occupancy
_atom_site_thermal_displace_type
_atom_site_U_iso_or_equiv
_atom_site_symmetry_multiplicity
Ca Ca 0.25 0.41510(23) 0.76093(31) 1.0 Uani 0.01085 4
C C 0.25 0.76232(13) -0.08508(21) 1.0 Uani 0.00873 4
O O1 0.25 0.92257(16) -0.09490(28) 1.0 Uani 0.01312 4
O O2 0.47318(19) 0.68090(11) -0.08566(22) 1.0 Uani 0.01168 8
loop_
_atom_type_symbol
_atom_type_number_in_cell
Ca 4.0
C 4.0
O 12.0
loop_
_geom_angle_atom_site_label_1
_geom_angle_atom_site_label_2
_geom_angle_atom_site_label_3
_geom_angle
_geom_angle_site_symmetry_1
_geom_angle_site_symmetry_3
_geom_angle_publ_flag
Ca Ca Ca 95.00(8) 3_554 3_555 n
Ca Ca O1 74.84(4) 3_554 3_565 n
Ca Ca O1 75.57(5) 3_554 -3_445 n
Ca Ca O1 75.57(5) 3_554 -3_545 n
Ca Ca O2 144.76(5) 3_554 1_556 n
Ca Ca O2 144.76(5) 3_554 2_556 n
Ca Ca O2 110.59(8) 3_554 -1_666 n
Ca Ca O2 110.59(8) 3_554 -2_566 n
Ca Ca O2 37.56(4) 3_554 -3_656 n
Ca Ca O2 37.56(4) 3_554 -4_556 n
Ca Ca O1 169.83(9) 3_555 3_565 n
Ca Ca O1 106.23(5) 3_555 -3_445 n
Ca Ca O1 106.23(5) 3_555 -3_545 n
Ca Ca O2 107.87(5) 3_555 1_556 n
Ca Ca O2 107.87(5) 3_555 2_556 n
Ca Ca O2 39.150(27) 3_555 -1_666 n
Ca Ca O2 39.150(27) 3_555 -2_566 n
Ca Ca O2 78.15(7) 3_555 -3_656 n
Ca Ca O2 78.15(7) 3_555 -4_556 n
O1 Ca O1 71.64(5) 3_565 -3_445 n
O1 Ca O1 71.64(5) 3_565 -3_545 n
O1 Ca O2 81.22(7) 3_565 1_556 n
O1 Ca O2 81.22(7) 3_565 2_556 n
O1 Ca O2 144.46(4) 3_565 -1_666 n
O1 Ca O2 144.46(4) 3_565 -2_566 n
O1 Ca O2 93.35(7) 3_565 -3_656 n
O1 Ca O2 93.35(7) 3_565 -4_556 n
O1 Ca O1 137.89(11) -3_445 -3_545 n
O1 Ca O2 120.74(7) -3_556 1_556 n
O1 Ca O2 72.52(4) -3_556 2_556 n
O1 Ca O2 143.78(7) -3_556 -1_666 n
O1 Ca O2 75.85(5) -3_556 -2_566 n
O1 Ca O2 112.41(8) -3_556 -3_656 n
O1 Ca O2 50.67(4) -3_556 -4_556 n
O1 Ca O2 72.52(4) -3_656 1_556 n
O1 Ca O2 120.74(7) -3_656 2_556 n
O1 Ca O2 75.85(5) -3_656 -1_666 n
O1 Ca O2 143.78(7) -3_656 -2_566 n
O1 Ca O2 50.67(4) -3_656 -3_656 n
O1 Ca O2 112.41(8) -3_656 -4_556 n
O2 Ca O2 51.55(5) 1_556 2_556 n
O2 Ca O2 75.61(5) 1_556 -1_666 n
O2 Ca O2 103.96(7) 1_556 -2_566 n
O2 Ca O2 121.029(15) 1_556 -3_656 n
O2 Ca O2 171.26(6) 1_556 -4_556 n
O2 Ca O2 103.96(7) 2_556 -1_666 n
O2 Ca O2 75.61(5) 2_556 -2_566 n
O2 Ca O2 171.26(6) 2_556 -3_656 n
O2 Ca O2 121.029(15) 2_556 -4_556 n
O2 Ca O2 68.56(7) -1_666 -2_566 n
O2 Ca O2 76.50(4) -1_666 -3_656 n
O2 Ca O2 112.28(7) -1_666 -4_556 n
O2 Ca O2 112.28(7) -2_566 -3_656 n
O2 Ca O2 76.50(4) -2_566 -4_556 n
O2 Ca O2 65.88(6) -3_656 -4_556 n
O1 C O2 120.32(6) 1_555 1_555 n
O1 C O2 120.32(6) 1_555 2_555 n
O2 C O2 119.28(13) 1_555 2_555 n
Ca O1 Ca 108.36(5) 3_564 -3_466 n
Ca O1 Ca 108.36(5) 3_564 -3_566 n
Ca O1 C 119.81(12) 3_564 1_555 n
Ca O1 Ca 137.89(11) -3_466 -3_566 n
Ca O1 C 89.62(6) -3_555 1_555 n
Ca O1 C 89.62(6) -3_655 1_555 n
Ca O2 Ca 104.39(5) 1_554 -1_666 n
Ca O2 Ca 135.47(5) 1_554 -3_566 n
Ca O2 C 92.63(7) 1_554 1_555 n
Ca O2 Ca 103.29(5) -1_666 -3_566 n
Ca O2 C 129.98(12) -1_666 1_555 n
Ca O2 C 95.56(8) -3_655 1_555 n
loop_
_geom_bond_atom_site_label_1
_geom_bond_atom_site_label_2
_geom_bond_distance
_geom_bond_site_symmetry_2
_geom_bond_publ_flag
Ca Ca 3.8941(24) 3_554 n
Ca Ca 3.8941(24) 3_555 n
Ca Ca 4.1190(28) -1_566 n
Ca Ca 3.9401(29) -1_567 n
Ca Ca 4.1190(28) -1_666 n
Ca Ca 3.9401(29) -1_667 n
Ca C 2.9045(21) 1_556 n
Ca C 3.2486(21) 3_565 n
Ca C 2.9425(11) -3_545 n
Ca C 2.9425(11) -3_645 n
Ca O1 2.4181(21) 3_565 n
Ca O1 2.6588(10) -3_545 n
Ca O1 2.6588(10) -3_645 n
Ca O2 2.5471(19) 1_556 n
Ca O2 2.5471(19) 2_556 n
Ca O2 2.4390(19) -1_666 n
Ca O2 2.4390(19) -2_466 n
Ca O2 2.5262(19) -3_645 n
Ca O2 2.5262(19) -4_445 n
C Ca 2.9045(21) 1_554 n
C Ca 3.2486(21) 3_564 n
C Ca 2.9425(11) -3_555 n
C Ca 2.9425(11) -3_655 n
C O1 1.2781(17) 1_555 n
C O2 1.2836(10) 1_555 n
C O2 1.2836(10) 2_555 n
O1 Ca 2.4181(21) 3_564 n
O1 Ca 2.6588(10) -3_555 n
O1 Ca 2.6588(10) -3_655 n
O1 C 1.2781(17) 1_555 n
O2 Ca 2.5471(19) 1_554 n
O2 Ca 2.4390(19) -1_666 n
O2 Ca 2.5262(19) -3_655 n
O2 C 1.2836(10) 1_555 n
loop_
_pd_block_diffractogram_id
2006-12-28T18:36|24313_LIJ_H_01|El'ad_Caspi|SEPD

#------------------------------------------------------------------------------
#$Date: 2016-03-24 00:04:51 +0000 (Thu, 24 Mar 2016) $
#$Revision: 179555 $
#$URL: svn://www.crystallography.net/cod/cif/4/50/24/4502441.cif $
#------------------------------------------------------------------------------
#
# This file is available in the Crystallography Open Database (COD),
# http://www.crystallography.net/
#
# All data on this site have been placed in the public domain by the
# contributors.
#
data_4502441
loop_
_publ_author_name
'Zolotoyabko, E.'
'Caspi, E. N.'
'Fieramosca, J. S.'
'Von Dreele, R. B.'
'Marin, F.'
'Mor, G.'
'Addadi, L.'
'Weiner, S.'
'Politi, Y.'
_publ_section_title
;
 Differences between Bond Lengths in Biogenic and Geological Calcite
;
_journal_issue                   3
_journal_name_full               'Crystal Growth &amp; Design'
_journal_page_first              1207
_journal_paper_doi               10.1021/cg901195t
_journal_volume                  10
_journal_year                    2010
_chemical_formula_sum            'C Ca O3'
_chemical_formula_weight         100.09
_chemical_name_systematic        ' ?'
_space_group_IT_number           167
_symmetry_cell_setting           trigonal
_symmetry_space_group_name_Hall  '-R 3 2"c'
_symmetry_space_group_name_H-M   'R -3 c :H'
_cell_angle_alpha                90.0
_cell_angle_beta                 90.0
_cell_angle_gamma                120.0
_cell_formula_units_Z            6
_cell_length_a                   4.987429(28)
_cell_length_b                   4.987429
_cell_length_c                   17.05058(14)
_cell_volume                     367.302(4)
_pd_block_id                     2009-09-19T15:47|25855_phase3|El'ad_Caspi||
_pd_phase_name                   Calcite
_cod_data_source_file            cg901195t_si_002.cif
_cod_data_source_block           25855_phase_3
_cod_original_sg_symbol_H-M      'R -3 c H'
_cod_database_code               4502441
loop_
_symmetry_equiv_pos_site_id
_symmetry_equiv_pos_as_xyz
1 +x,+y,+z
2 -y,x-y,+z
3 y-x,-x,+z
4 y-x,+y,+z+1/2
5 -y,-x,+z+1/2
6 +x,x-y,+z+1/2
-1 -x,-y,-z
-2 +y,y-x,-z
-3 x-y,+x,-z
-4 x-y,-y,-z+1/2
-5 +y,+x,-z+1/2
-6 -x,y-x,-z+1/2
101 +x+1/3,+y+2/3,+z+2/3
102 -y+1/3,x-y+2/3,+z+2/3
103 y-x+1/3,-x+2/3,+z+2/3
104 y-x+1/3,+y+2/3,+z+1/6
105 -y+1/3,-x+2/3,+z+1/6
106 +x+1/3,x-y+2/3,+z+1/6
-101 -x+2/3,-y+1/3,-z+1/3
-102 +y+2/3,y-x+1/3,-z+1/3
-103 x-y+2/3,+x+1/3,-z+1/3
-104 x-y+2/3,-y+1/3,-z+5/6
-105 +y+2/3,+x+1/3,-z+5/6
-106 -x+2/3,y-x+1/3,-z+5/6
201 +x+2/3,+y+1/3,+z+1/3
202 -y+2/3,x-y+1/3,+z+1/3
203 y-x+2/3,-x+1/3,+z+1/3
204 y-x+2/3,+y+1/3,+z+5/6
205 -y+2/3,-x+1/3,+z+5/6
206 +x+2/3,x-y+1/3,+z+5/6
-201 -x+1/3,-y+2/3,-z+2/3
-202 +y+1/3,y-x+2/3,-z+2/3
-203 x-y+1/3,+x+2/3,-z+2/3
-204 x-y+1/3,-y+2/3,-z+1/6
-205 +y+1/3,+x+2/3,-z+1/6
-206 -x+1/3,y-x+2/3,-z+1/6
loop_
_atom_site_aniso_label
_atom_site_aniso_U_11
_atom_site_aniso_U_12
_atom_site_aniso_U_13
_atom_site_aniso_U_22
_atom_site_aniso_U_23
_atom_site_aniso_U_33
Ca 0.00966(28) 0.00483(14) 0.0 0.00966(28) 0.0 0.0126(6)
C 0.00991(25) 0.00495(12) 0.0 0.00991(25) 0.0 0.0115(4)
O 0.01181(20) 0.01015(18) -0.00360(15) 0.0203(4) -0.00721(29) 0.02253(30)
loop_
_atom_site_type_symbol
_atom_site_label
_atom_site_fract_x
_atom_site_fract_y
_atom_site_fract_z
_atom_site_occupancy
_atom_site_thermal_displace_type
_atom_site_U_iso_or_equiv
_atom_site_symmetry_multiplicity
Ca Ca 0.0 0.0 0.0 1.0 Uani 0.01065 6
C C 0.0 0.0 0.25 1.0 Uani 0.01046 6
O O 0.25699(10) 0.0 0.25 1.0 Uani 0.01727 18
loop_
_atom_type_symbol
_atom_type_number_in_cell
Ca 6.0
C 6.0
O 18.0
loop_
_pd_block_diffractogram_id
2009-09-19T15:47|25855_H_01|El'ad_Caspi|SEPD

#------------------------------------------------------------------------------
#$Date: 2016-03-24 00:04:51 +0000 (Thu, 24 Mar 2016) $
#$Revision: 179555 $
#$URL: svn://www.crystallography.net/cod/cif/4/50/24/4502443.cif $
#------------------------------------------------------------------------------
#
# This file is available in the Crystallography Open Database (COD),
# http://www.crystallography.net/
#
# All data on this site have been placed in the public domain by the
# contributors.
#
data_4502443
loop_
_publ_author_name
'Zolotoyabko, E.'
'Caspi, E. N.'
'Fieramosca, J. S.'
'Von Dreele, R. B.'
'Marin, F.'
'Mor, G.'
'Addadi, L.'
'Weiner, S.'
'Politi, Y.'
_publ_section_title
;
 Differences between Bond Lengths in Biogenic and Geological Calcite
;
_journal_issue                   3
_journal_name_full               'Crystal Growth &amp; Design'
_journal_page_first              1207
_journal_paper_doi               10.1021/cg901195t
_journal_volume                  10
_journal_year                    2010
_chemical_formula_sum            'C Ca O3'
_chemical_formula_weight         100.09
_chemical_name_systematic        ' ?'
_space_group_IT_number           167
_symmetry_cell_setting           trigonal
_symmetry_space_group_name_Hall  '-R 3 2"c'
_symmetry_space_group_name_H-M   'R -3 c :H'
_cell_angle_alpha                90.0
_cell_angle_beta                 90.0
_cell_angle_gamma                120.0
_cell_formula_units_Z            6
_cell_length_a                   4.97577(5)
_cell_length_b                   4.97577
_cell_length_c                   16.99207(24)
_cell_volume                     364.332(6)
_pd_block_id                     2009-09-19T15:36|25812_phase3|El'ad_Caspi||
_pd_phase_name                   Calcite
_cod_data_source_file            cg901195t_si_006.cif
_cod_data_source_block           25812_phase_3
_cod_original_cell_volume        364.333(6)
_cod_original_sg_symbol_H-M      'R -3 c H'
_cod_database_code               4502443
loop_
_symmetry_equiv_pos_site_id
_symmetry_equiv_pos_as_xyz
1 +x,+y,+z
2 -y,x-y,+z
3 y-x,-x,+z
4 y-x,+y,+z+1/2
5 -y,-x,+z+1/2
6 +x,x-y,+z+1/2
-1 -x,-y,-z
-2 +y,y-x,-z
-3 x-y,+x,-z
-4 x-y,-y,-z+1/2
-5 +y,+x,-z+1/2
-6 -x,y-x,-z+1/2
101 +x+1/3,+y+2/3,+z+2/3
102 -y+1/3,x-y+2/3,+z+2/3
103 y-x+1/3,-x+2/3,+z+2/3
104 y-x+1/3,+y+2/3,+z+1/6
105 -y+1/3,-x+2/3,+z+1/6
106 +x+1/3,x-y+2/3,+z+1/6
-101 -x+2/3,-y+1/3,-z+1/3
-102 +y+2/3,y-x+1/3,-z+1/3
-103 x-y+2/3,+x+1/3,-z+1/3
-104 x-y+2/3,-y+1/3,-z+5/6
-105 +y+2/3,+x+1/3,-z+5/6
-106 -x+2/3,y-x+1/3,-z+5/6
201 +x+2/3,+y+1/3,+z+1/3
202 -y+2/3,x-y+1/3,+z+1/3
203 y-x+2/3,-x+1/3,+z+1/3
204 y-x+2/3,+y+1/3,+z+5/6
205 -y+2/3,-x+1/3,+z+5/6
206 +x+2/3,x-y+1/3,+z+5/6
-201 -x+1/3,-y+2/3,-z+2/3
-202 +y+1/3,y-x+2/3,-z+2/3
-203 x-y+1/3,+x+2/3,-z+2/3
-204 x-y+1/3,-y+2/3,-z+1/6
-205 +y+1/3,+x+2/3,-z+1/6
-206 -x+1/3,y-x+2/3,-z+1/6
loop_
_atom_site_aniso_label
_atom_site_aniso_U_11
_atom_site_aniso_U_12
_atom_site_aniso_U_13
_atom_site_aniso_U_22
_atom_site_aniso_U_23
_atom_site_aniso_U_33
Ca 0.0113(4) 0.00564(21) 0.0 0.0113(4) 0.0 0.0140(9)
C 0.0129(4) 0.00643(20) 0.0 0.0129(4) 0.0 0.0176(8)
O 0.01493(31) 0.01277(29) -0.00333(23) 0.0255(6) -0.0067(5) 0.0297(5)
loop_
_atom_site_type_symbol
_atom_site_label
_atom_site_fract_x
_atom_site_fract_y
_atom_site_fract_z
_atom_site_occupancy
_atom_site_thermal_displace_type
_atom_site_U_iso_or_equiv
_atom_site_symmetry_multiplicity
Ca Ca 0.0 0.0 0.0 1.0 Uani 0.01218 6
C C 0.0 0.0 0.25 1.0 Uani 0.01444 6
O O 0.25790(14) 0.0 0.25 1.0 Uani 0.02222 18
loop_
_atom_type_symbol
_atom_type_number_in_cell
Ca 6.0
C 6.0
O 18.0
loop_
_pd_block_diffractogram_id
2009-09-19T15:36|25812_H_01|El'ad_Caspi|SEPD

#------------------------------------------------------------------------------
#$Date: 2023-03-23 15:34:17 +0000 (Thu, 23 Mar 2023) $
#$Revision: 282023 $
#$URL: svn://www.crystallography.net/cod/cif/5/00/00/5000085.cif $
#------------------------------------------------------------------------------
#
# This file is available in the Crystallography Open Database (COD),
# http://www.crystallography.net/
#
# All data on this site have been placed in the public domain by the
# contributors.
#
data_5000085
loop_
_publ_author_name
'de Villiers, J. P. R.'
_publ_section_title
;
 Crystal structures of aragonite, strontianite, and witherite
;
_journal_coden_ASTM              AMMIAY
_journal_name_full               'American Mineralogist'
_journal_page_first              758
_journal_page_last               767
_journal_volume                  56
_journal_year                    1971
_chemical_formula_sum            'C Ca O3'
_chemical_name_mineral           Aragonite
_chemical_name_systematic        'Calcium carbonate'
_space_group_crystal_system      orthorhombic
_space_group_IT_number           62
_space_group_name_Hall           '-P 2n 2a'
_space_group_name_H-M_alt        'P m c n'
_symmetry_space_group_name_H-M   'P m c n'
_cell_angle_alpha                90
_cell_angle_beta                 90
_cell_angle_gamma                90
_cell_formula_units_Z            4
_cell_length_a                   4.9614(3)
_cell_length_b                   7.9671(4)
_cell_length_c                   5.7404(4)
_cell_volume                     226.9
_database_code_amcsd             0000233
_exptl_crystal_density_diffrn    2.930
_cod_depositor_comments
;
 Merging entries 5000085 and 9000226. Marking entry 9000226 as a duplicate
 of entry 5000085. Marking entries 5000085 and 9000226 as being related
 to AMCSD 0000233.

 Antanas Vaitkus,
 2018-07-06
;
_cod_database_code               5000085
loop_
_space_group_symop_id
_space_group_symop_operation_xyz
1 x,y,z
2 -x+1/2,-y+1/2,z+1/2
3 x+1/2,-y,-z
4 -x,y+1/2,-z+1/2
5 -x,-y,-z
6 x+1/2,y+1/2,-z+1/2
7 -x+1/2,y,z
8 x,-y+1/2,z+1/2
loop_
_atom_site_aniso_label
_atom_site_aniso_U_11
_atom_site_aniso_U_22
_atom_site_aniso_U_33
_atom_site_aniso_U_12
_atom_site_aniso_U_13
_atom_site_aniso_U_23
Ca 0.00773 0.00675 0.01052 0.00000 0.00000 0.00023
C 0.00811 0.00868 0.00417 0.00000 0.00000 -0.00139
O1 0.01521 0.00900 0.01436 0.00000 0.00000 -0.00255
O2 0.00661 0.01351 0.01152 0.00160 -0.00014 -0.00695
loop_
_atom_site_label
_atom_site_type_symbol
_atom_site_symmetry_multiplicity
_atom_site_Wyckoff_symbol
_atom_site_fract_x
_atom_site_fract_y
_atom_site_fract_z
_atom_site_occupancy
_atom_site_calc_flag
Ca Ca2+ 4 c 0.25 0.4150(1) 0.7597(3) 1 d
C C4+ 4 c 0.25 0.7622(4) -0.0862(10) 1 d
O1 O2- 4 c 0.25 0.9225(4) -0.0962(9) 1 d
O2 O2- 8 d 0.4736(4) 0.6810(3) -0.0862(5) 1 d
loop_
_atom_type_symbol
_atom_type_oxidation_number
Ca2+ 2
C4+ 4
O2- -2
loop_
_cod_related_entry_id
_cod_related_entry_database
_cod_related_entry_code
1 AMCSD 0000233

#------------------------------------------------------------------------------
#$Date: 2016-03-25 12:54:30 +0000 (Fri, 25 Mar 2016) $
#$Revision: 179905 $
#$URL: svn://www.crystallography.net/cod/cif/7/02/01/7020139.cif $
#------------------------------------------------------------------------------
#
# This file is available in the Crystallography Open Database (COD),
# http://www.crystallography.net/
#
# All data on this site have been placed in the public domain by the
# contributors.
#
data_7020139
loop_
_publ_author_name
'Nielsen, Renie Birkedal'
'Norby, Poul'
'Kongshaug, Kjell Ove'
'Fjellv\%ag, Helmer'
_publ_section_title
;
 Synthesis, crystal structure and thermal properties of
 Ca6(C12H14O4)4(CO3)(OH)2(H2O)x--a 3D inorganic hybrid material.
;
_journal_issue                   39
_journal_name_full
'Dalton transactions (Cambridge, England : 2003)'
_journal_page_first              12082
_journal_page_last               12089
_journal_paper_doi               10.1039/c2dt30651d
_journal_volume                  41
_journal_year                    2012
_chemical_formula_sum            'C Ca O3'
_chemical_formula_weight         100.09
_chemical_name_common            CaCO3
_chemical_name_systematic        ' ?'
_space_group_IT_number           167
_symmetry_cell_setting           trigonal
_symmetry_space_group_name_Hall  '-R 3 2"c'
_symmetry_space_group_name_H-M   'R -3 c :H'
_cell_angle_alpha                90.0
_cell_angle_beta                 90.0
_cell_angle_gamma                120.0
_cell_formula_units_Z            6
_cell_length_a                   4.9869(5)
_cell_length_b                   4.9869
_cell_length_c                   17.0335(26)
_cell_measurement_temperature    298
_cell_volume                     366.86(7)
_pd_block_id
2012-07-24T22:21|RBN_115_DRY_NEW_UDEN_phase3|Renie_Birkedal||
_pd_phase_name                   CaCO3
_cod_data_source_file            c2dt30651d.txt
_cod_data_source_block           RBN_115_DRY_NEW_UDEN_phase_3
_cod_depositor_comments
;
The following automatic conversions were performed:

'_geom_bond_publ_flag' value 'N' changed to 'n' according to
/home/saulius/struct/CIF-dictionaries/cif_core.dic dictionary named
'cif_core.dic' version 2.4.2 from 2011-04-26 (30
times).

'_geom_angle_publ_flag' value 'N' changed to 'n' according
to /home/saulius/struct/CIF-dictionaries/cif_core.dic dictionary
named 'cif_core.dic' version 2.4.2 from 2011-04-26 (21 time).

Automatic conversion script
Id: cif_fix_values 1891 2012-01-12 08:04:46Z andrius 
;
_cod_original_cell_volume        366.86(5)
_cod_original_sg_symbol_H-M      'R -3 c'
_cod_database_code               7020139
loop_
_symmetry_equiv_pos_site_id
_symmetry_equiv_pos_as_xyz
1 +x,+y,+z
2 -y,x-y,+z
3 y-x,-x,+z
4 y-x,+y,+z+1/2
5 -y,-x,+z+1/2
6 +x,x-y,+z+1/2
-1 -x,-y,-z
-2 +y,y-x,-z
-3 x-y,+x,-z
-4 x-y,-y,-z+1/2
-5 +y,+x,-z+1/2
-6 -x,y-x,-z+1/2
101 +x+1/3,+y+2/3,+z+2/3
102 -y+1/3,x-y+2/3,+z+2/3
103 y-x+1/3,-x+2/3,+z+2/3
104 y-x+1/3,+y+2/3,+z+1/6
105 -y+1/3,-x+2/3,+z+1/6
106 +x+1/3,x-y+2/3,+z+1/6
-101 -x+2/3,-y+1/3,-z+1/3
-102 +y+2/3,y-x+1/3,-z+1/3
-103 x-y+2/3,+x+1/3,-z+1/3
-104 x-y+2/3,-y+1/3,-z+5/6
-105 +y+2/3,+x+1/3,-z+5/6
-106 -x+2/3,y-x+1/3,-z+5/6
201 +x+2/3,+y+1/3,+z+1/3
202 -y+2/3,x-y+1/3,+z+1/3
203 y-x+2/3,-x+1/3,+z+1/3
204 y-x+2/3,+y+1/3,+z+5/6
205 -y+2/3,-x+1/3,+z+5/6
206 +x+2/3,x-y+1/3,+z+5/6
-201 -x+1/3,-y+2/3,-z+2/3
-202 +y+1/3,y-x+2/3,-z+2/3
-203 x-y+1/3,+x+2/3,-z+2/3
-204 x-y+1/3,-y+2/3,-z+1/6
-205 +y+1/3,+x+2/3,-z+1/6
-206 -x+1/3,y-x+2/3,-z+1/6
loop_
_atom_site_type_symbol
_atom_site_label
_atom_site_fract_x
_atom_site_fract_y
_atom_site_fract_z
_atom_site_occupancy
_atom_site_thermal_displace_type
_atom_site_U_iso_or_equiv
_atom_site_symmetry_multiplicity
Ca Ca 0.0 0.0 0.0 1.0 Uiso 0.025 6
C C 0.0 0.0 0.25 1.0 Uiso 0.025 6
O O 0.26569 0.0 0.25 1.0 Uiso 0.025 18
loop_
_atom_type_symbol
_atom_type_number_in_cell
Ca 6.0
C 6.0
O 18.0
loop_
_geom_angle_atom_site_label_1
_geom_angle_atom_site_label_2
_geom_angle_atom_site_label_3
_geom_angle
_geom_angle_site_symmetry_1
_geom_angle_site_symmetry_3
_geom_angle_publ_flag
O Ca O 86.888(7) 101_444 102_544 n
O Ca O 86.888(7) 101_444 103_554 n
O Ca O 180.0 101_444 204_554 n
O Ca O 93.112(7) 101_444 205_454 n
O Ca O 93.112(7) 101_444 206_444 n
O Ca O 86.888(7) 102_544 103_554 n
O Ca O 93.112(7) 102_544 204_554 n
O Ca O 180.0 102_544 205_454 n
O Ca O 93.112(7) 102_544 206_444 n
O Ca O 93.112(7) 103_554 204_554 n
O Ca O 93.112(7) 103_554 205_454 n
O Ca O 180.0 103_554 206_444 n
O Ca O 86.888(7) 204_554 205_454 n
O Ca O 86.888(7) 204_554 206_444 n
O Ca O 86.888(7) 205_454 206_444 n
O C O 120.0 1_555 2_555 n
O C O 120.0 1_555 3_555 n
O C O 120.0 2_555 3_555 n
Ca O Ca 119.947(5) 104_543 201_555 n
Ca O C 120.0265(23) 104_543 1_555 n
Ca O C 120.0265(23) 201_555 1_555 n
loop_
_geom_bond_atom_site_label_1
_geom_bond_atom_site_label_2
_geom_bond_distance
_geom_bond_site_symmetry_2
_geom_bond_publ_flag
Ca Ca 4.0434(4) 104_445 n
Ca Ca 4.0434(4) 104_545 n
Ca Ca 4.0434(4) 104_555 n
Ca Ca 4.0434(4) 204_444 n
Ca Ca 4.0434(4) 204_454 n
Ca Ca 4.0434(4) 204_554 n
Ca C 3.21008(30) 101_444 n
Ca C 3.21008(30) 101_544 n
Ca C 3.21008(30) 101_554 n
Ca C 3.21008(30) 204_444 n
Ca C 3.21008(30) 204_454 n
Ca C 3.21008(30) 204_554 n
Ca O 2.33509(21) 101_444 n
Ca O 2.33509(21) 102_544 n
Ca O 2.33509(21) 103_554 n
Ca O 2.33509(21) 204_554 n
Ca O 2.33509(21) 205_454 n
Ca O 2.33509(21) 206_444 n
C Ca 3.21008(30) 104_445 n
C Ca 3.21008(30) 104_545 n
C Ca 3.21008(30) 104_555 n
C Ca 3.21008(30) 201_445 n
C Ca 3.21008(30) 201_455 n
C Ca 3.21008(30) 201_555 n
C O 1.32498(15) 1_555 n
C O 1.32498(15) 2_555 n
C O 1.32498(15) 3_555 n
O Ca 2.33509(21) 104_545 n
O Ca 2.33509(21) 201_555 n
O C 1.32498(15) 1_555 n
loop_
_pd_block_diffractogram_id
2012-07-24T22:21|RBN_115_DRY_NEW_UDEN_H_01|Renie_Birkedal|SNBL_high_res

#------------------------------------------------------------------------------
#$Date: 2016-03-25 13:34:24 +0000 (Fri, 25 Mar 2016) $
#$Revision: 179925 $
#$URL: svn://www.crystallography.net/cod/cif/7/02/20/7022027.cif $
#------------------------------------------------------------------------------
#
# This file is available in the Crystallography Open Database (COD),
# http://www.crystallography.net/
#
# All data on this site have been placed in the public domain by the
# contributors.
#
data_7022027
loop_
_publ_author_name
'Tyutyunnik, Alexander P.'
'Slobodin, Boris V.'
'Samigullina, Rina F.'
'Verberck, Bart'
'Tarakina, Nadezda V.'
_publ_section_title
;
 K2CaV2O7: a pyrovanadate with a new layered type of structure in the
 A2BV2O7 family.
;
_journal_issue                   4
_journal_name_full
'Dalton transactions (Cambridge, England : 2003)'
_journal_page_first              1057
_journal_page_last               1064
_journal_paper_doi               10.1039/c2dt31246h
_journal_volume                  42
_journal_year                    2013
_chemical_formula_structural     'Ca C O3'
_chemical_formula_sum            'C Ca O3'
_chemical_formula_weight         100.09
_chemical_name_common            'Calcium Carbonate'
_space_group_IT_number           167
_symmetry_cell_setting           trigonal
_symmetry_space_group_name_Hall  '-R 3 2"c'
_symmetry_space_group_name_H-M   'R -3 c :H'
_cell_angle_alpha                90.0
_cell_angle_beta                 90.0
_cell_angle_gamma                120.0
_cell_formula_units_Z            6
_cell_length_a                   4.9915(11)
_cell_length_b                   4.9915
_cell_length_c                   17.088(5)
_cell_measurement_temperature    298
_cell_volume                     368.71(14)
_computing_structure_solution
'GSAS (A.C. Larson and R.B. Von Dreele, 2004), EXPGUI (Toby, B.H., 2001)'
_diffrn_ambient_temperature      298(2)
_diffrn_radiation_wavelength     1.54056
_exptl_crystal_density_diffrn    2.705
_exptl_crystal_density_method    'not measured'
_pd_block_id                     2012-05-24T12:12|K5CA3V5O18_phase3|Tyutyunnik||
_pd_phase_name
'from C:/X-ray/Samigullina/2011-02-01/CaCO3.cel'
_cod_data_source_file            c2dt31246h.txt
_cod_data_source_block           K5CA3V5O18_phase_3
_cod_original_cell_volume        368.72(15)
_cod_original_sg_symbol_H-M      'R -3 c'
_cod_database_code               7022027
loop_
_symmetry_equiv_pos_site_id
_symmetry_equiv_pos_as_xyz
1 +x,+y,+z
2 -y,x-y,+z
3 y-x,-x,+z
4 y-x,+y,+z+1/2
5 -y,-x,+z+1/2
6 +x,x-y,+z+1/2
-1 -x,-y,-z
-2 +y,y-x,-z
-3 x-y,+x,-z
-4 x-y,-y,-z+1/2
-5 +y,+x,-z+1/2
-6 -x,y-x,-z+1/2
101 +x+1/3,+y+2/3,+z+2/3
102 -y+1/3,x-y+2/3,+z+2/3
103 y-x+1/3,-x+2/3,+z+2/3
104 y-x+1/3,+y+2/3,+z+1/6
105 -y+1/3,-x+2/3,+z+1/6
106 +x+1/3,x-y+2/3,+z+1/6
-101 -x+2/3,-y+1/3,-z+1/3
-102 +y+2/3,y-x+1/3,-z+1/3
-103 x-y+2/3,+x+1/3,-z+1/3
-104 x-y+2/3,-y+1/3,-z+5/6
-105 +y+2/3,+x+1/3,-z+5/6
-106 -x+2/3,y-x+1/3,-z+5/6
201 +x+2/3,+y+1/3,+z+1/3
202 -y+2/3,x-y+1/3,+z+1/3
203 y-x+2/3,-x+1/3,+z+1/3
204 y-x+2/3,+y+1/3,+z+5/6
205 -y+2/3,-x+1/3,+z+5/6
206 +x+2/3,x-y+1/3,+z+5/6
-201 -x+1/3,-y+2/3,-z+2/3
-202 +y+1/3,y-x+2/3,-z+2/3
-203 x-y+1/3,+x+2/3,-z+2/3
-204 x-y+1/3,-y+2/3,-z+1/6
-205 +y+1/3,+x+2/3,-z+1/6
-206 -x+1/3,y-x+2/3,-z+1/6
loop_
_atom_site_type_symbol
_atom_site_label
_atom_site_fract_x
_atom_site_fract_y
_atom_site_fract_z
_atom_site_occupancy
_atom_site_thermal_displace_type
_atom_site_U_iso_or_equiv
_atom_site_symmetry_multiplicity
Ca Ca 0.0 0.0 0.0 1.0 Uiso 0.025 6
C C 0.0 0.0 0.25 1.0 Uiso 0.025 6
O O 0.2568 0.0 0.25 1.0 Uiso 0.025 18
loop_
_atom_type_symbol
_atom_type_number_in_cell
Ca 6.0
O 18.0
C 6.0
loop_
_pd_block_diffractogram_id
2012-05-24T12:12|K5CA3V5O18_H_01|Tyutyunnik|STADI-P

#------------------------------------------------------------------------------
#$Date: 2023-03-26 09:09:57 +0100 (Sun, 26 Mar 2023) $
#$Revision: 282068 $
#$URL: svn://www.crystallography.net/cod/cif/9/00/00/9000095.cif $
#------------------------------------------------------------------------------
#
# This file is available in the Crystallography Open Database (COD),
# http://www.crystallography.net/. The original data for this entry
# were provided the American Mineralogist Crystal Structure Database,
# http://rruff.geo.arizona.edu/AMS/amcsd.php
#
# The file may be used within the scientific community so long as
# proper attribution is given to the journal article from which the
# data were obtained.
#
data_9000095
loop_
_publ_author_name
'Graf, D. L.'
_publ_section_title
;
 Crystallographic tables for the rhombohedral carbonates
;
_journal_name_full               'American Mineralogist'
_journal_page_first              1283
_journal_page_last               1316
_journal_volume                  46
_journal_year                    1961
_chemical_formula_structural     Ca(CO3)
_chemical_formula_sum            'C Ca O3'
_chemical_name_mineral           Calcite
_space_group_crystal_system      trigonal
_space_group_IT_number           167
_space_group_name_Hall           '-R 3 2"c'
_space_group_name_H-M_alt        'R -3 c :H'
_symmetry_space_group_name_H-M   'R -3 c'
_cell_angle_alpha                90
_cell_angle_beta                 90
_cell_angle_gamma                120
_cell_formula_units_Z            6
_cell_length_a                   4.9900
_cell_length_b                   4.9900
_cell_length_c                   17.0615
_cell_volume                     367.916
_database_code_amcsd             0000098
_exptl_crystal_density_diffrn    2.710
_cod_original_sg_symbol_H-M      'R -3 c'
_cod_original_formula_sum        'Ca C O3'
_cod_database_code               9000095
loop_
_space_group_symop_id
_space_group_symop_operation_xyz
1 x,y,z
2 2/3+x,1/3+y,1/3+z
3 1/3+x,2/3+y,2/3+z
4 x,x-y,1/2+z
5 2/3+x,1/3+x-y,5/6+z
6 1/3+x,2/3+x-y,1/6+z
7 y,x,1/2-z
8 2/3+y,1/3+x,5/6-z
9 1/3+y,2/3+x,1/6-z
10 -x+y,y,1/2+z
11 2/3-x+y,1/3+y,5/6+z
12 1/3-x+y,2/3+y,1/6+z
13 -x,-x+y,1/2-z
14 2/3-x,1/3-x+y,5/6-z
15 1/3-x,2/3-x+y,1/6-z
16 -y,-x,1/2+z
17 2/3-y,1/3-x,5/6+z
18 1/3-y,2/3-x,1/6+z
19 x-y,-y,1/2-z
20 2/3+x-y,1/3-y,5/6-z
21 1/3+x-y,2/3-y,1/6-z
22 y,-x+y,-z
23 2/3+y,1/3-x+y,1/3-z
24 1/3+y,2/3-x+y,2/3-z
25 -x+y,-x,z
26 2/3-x+y,1/3-x,1/3+z
27 1/3-x+y,2/3-x,2/3+z
28 -x,-y,-z
29 2/3-x,1/3-y,1/3-z
30 1/3-x,2/3-y,2/3-z
31 -y,x-y,z
32 2/3-y,1/3+x-y,1/3+z
33 1/3-y,2/3+x-y,2/3+z
34 x-y,x,-z
35 2/3+x-y,1/3+x,1/3-z
36 1/3+x-y,2/3+x,2/3-z
loop_
_atom_site_label
_atom_site_fract_x
_atom_site_fract_y
_atom_site_fract_z
Ca 0.00000 0.00000 0.00000
C 0.00000 0.00000 0.25000
O 0.25780 0.00000 0.25000
loop_
_cod_related_entry_id
_cod_related_entry_database
_cod_related_entry_code
1 AMCSD 0000098

#------------------------------------------------------------------------------
#$Date: 2018-07-06 19:13:16 +0100 (Fri, 06 Jul 2018) $
#$Revision: 208879 $
#$URL: svn://www.crystallography.net/cod/cif/9/00/02/9000226.cif $
#------------------------------------------------------------------------------
#
# This file is available in the Crystallography Open Database (COD),
# http://www.crystallography.net/. The original data for this entry
# were provided the American Mineralogist Crystal Structure Database,
# http://rruff.geo.arizona.edu/AMS/amcsd.php
#
# The file may be used within the scientific community so long as
# proper attribution is given to the journal article from which the
# data were obtained.
#
data_9000226
loop_
_publ_author_name
'de Villiers, J. P. R.'
_publ_section_title
;
 Crystal structures of aragonite, strontianite, and witherite
;
_journal_coden_ASTM              AMMIAY
_journal_name_full               'American Mineralogist'
_journal_page_first              758
_journal_page_last               767
_journal_volume                  56
_journal_year                    1971
_chemical_formula_sum            'C Ca O3'
_chemical_name_mineral           Aragonite
_chemical_name_systematic        'Calcium carbonate'
_space_group_crystal_system      orthorhombic
_space_group_IT_number           62
_space_group_name_Hall           '-P 2n 2a'
_space_group_name_H-M_alt        'P m c n'
_cell_angle_alpha                90
_cell_angle_beta                 90
_cell_angle_gamma                90
_cell_formula_units_Z            4
_cell_length_a                   4.9614(3)
_cell_length_b                   7.9671(4)
_cell_length_c                   5.7404(4)
_cell_volume                     226.906
_exptl_crystal_density_diffrn    2.930
_cod_duplicate_entry             5000085
_cod_depositor_comments
;
 Merging entries 5000085 and 9000226. Marking entry 9000226 as a duplicate
 of entry 5000085. Marking entries 5000085 and 9000226 as being related
 to AMCSD 0000233.

 Antanas Vaitkus,
 2018-07-06
;
_cod_original_formula_sum        'Ca C O3'
_cod_database_code               9000226
loop_
_space_group_symop_id
_space_group_symop_operation_xyz
1 x,y,z
2 -x+1/2,-y+1/2,z+1/2
3 x+1/2,-y,-z
4 -x,y+1/2,-z+1/2
5 -x,-y,-z
6 x+1/2,y+1/2,-z+1/2
7 -x+1/2,y,z
8 x,-y+1/2,z+1/2
loop_
_atom_site_aniso_label
_atom_site_aniso_U_11
_atom_site_aniso_U_22
_atom_site_aniso_U_33
_atom_site_aniso_U_12
_atom_site_aniso_U_13
_atom_site_aniso_U_23
Ca 0.00773 0.00675 0.01052 0.00000 0.00000 0.00023
C 0.00811 0.00868 0.00417 0.00000 0.00000 -0.00139
O1 0.01521 0.00900 0.01436 0.00000 0.00000 -0.00255
O2 0.00661 0.01351 0.01152 0.00160 -0.00014 -0.00695
loop_
_atom_site_label
_atom_site_type_symbol
_atom_site_symmetry_multiplicity
_atom_site_Wyckoff_symbol
_atom_site_fract_x
_atom_site_fract_y
_atom_site_fract_z
_atom_site_occupancy
_atom_site_calc_flag
Ca Ca2+ 4 c 0.25 0.4150(1) 0.7597(3) 1 d
C C4+ 4 c 0.25 0.7622(4) -0.0862(10) 1 d
O1 O2- 4 c 0.25 0.9225(4) -0.0962(9) 1 d
O2 O2- 8 d 0.4736(4) 0.6810(3) -0.0862(5) 1 d
loop_
_atom_type_symbol
_atom_type_oxidation_number
Ca2+ 2
C4+ 4
O2- -2
loop_
_cod_related_entry_id
_cod_related_entry_database
_cod_related_entry_code
1 AMCSD 0000233

#------------------------------------------------------------------------------
#$Date: 2024-04-18 16:56:43 +0100 (Thu, 18 Apr 2024) $
#$Revision: 291269 $
#$URL: svn://www.crystallography.net/cod/cif/9/00/02/9000229.cif $
#------------------------------------------------------------------------------
#
# This file is available in the Crystallography Open Database (COD),
# http://www.crystallography.net/. The original data for this entry
# were provided the American Mineralogist Crystal Structure Database,
# http://rruff.geo.arizona.edu/AMS/amcsd.php
#
# The file may be used within the scientific community so long as
# proper attribution is given to the journal article from which the
# data were obtained.
#
data_9000229
loop_
_publ_author_name
'Dal Negro, A.'
'Ungaretti, L.'
_publ_section_title
;
 Refinement of the crystal structure of aragonite
;
_journal_name_full               'American Mineralogist'
_journal_page_first              768
_journal_page_last               772
_journal_volume                  56
_journal_year                    1971
_chemical_compound_source        'Vertaizon-Alvernia, France'
_chemical_formula_sum            'C Ca O3'
_chemical_name_mineral           Aragonite
_space_group_IT_number           62
_symmetry_space_group_name_Hall  '-P 2n 2a'
_symmetry_space_group_name_H-M   'P m c n'
_cell_angle_alpha                90
_cell_angle_beta                 90
_cell_angle_gamma                90
_cell_length_a                   4.9616
_cell_length_b                   7.9705
_cell_length_c                   5.7394
_cell_formula_units_Z            4
_cell_volume                     226.973
_database_code_amcsd             0000236
_exptl_crystal_density_diffrn    2.929
_cod_original_formula_sum        'Ca C O3'
_cod_database_code               9000229
loop_
_space_group_symop_operation_xyz
x,y,z
1/2-x,y,z
1/2+x,-y,-z
1/2+x,1/2+y,1/2-z
1/2-x,1/2-y,1/2+z
x,1/2-y,1/2+z
-x,1/2+y,1/2-z
-x,-y,-z
loop_
_atom_site_aniso_label
_atom_site_aniso_U_11
_atom_site_aniso_U_22
_atom_site_aniso_U_33
_atom_site_aniso_U_12
_atom_site_aniso_U_13
_atom_site_aniso_U_23
Ca 0.00828 0.00913 0.00796 0.00000 0.00000 -0.00035
C 0.01061 0.01141 0.00846 0.00000 0.00000 0.00138
O1 0.01850 0.01243 0.01647 0.00000 0.00000 0.00250
O2 0.01062 0.01778 0.01700 0.00247 0.00099 -0.00060
loop_
_atom_site_label
_atom_site_fract_x
_atom_site_fract_y
_atom_site_fract_z
Ca 0.25000 0.41510 0.24030
C 0.25000 0.76270 0.08500
O1 0.25000 0.92310 0.09520
O2 0.47290 0.68010 0.08700
loop_
_cod_related_entry_id
_cod_related_entry_database
_cod_related_entry_code
1 AMCSD 0000236

#------------------------------------------------------------------------------
#$Date: 2024-04-18 16:56:43 +0100 (Thu, 18 Apr 2024) $
#$Revision: 291269 $
#$URL: svn://www.crystallography.net/cod/cif/9/00/09/9000965.cif $
#------------------------------------------------------------------------------
#
# This file is available in the Crystallography Open Database (COD),
# http://www.crystallography.net/. The original data for this entry
# were provided the American Mineralogist Crystal Structure Database,
# http://rruff.geo.arizona.edu/AMS/amcsd.php
#
# The file may be used within the scientific community so long as
# proper attribution is given to the journal article from which the
# data were obtained.
#
data_9000965
loop_
_publ_author_name
'Markgraf, S. A.'
'Reeder, R. J.'
_publ_section_title
;
 High-temperature structure refinements of calcite and magnesite
 Sample: T = 24 C
;
_journal_name_full               'American Mineralogist'
_journal_page_first              590
_journal_page_last               600
_journal_volume                  70
_journal_year                    1985
_chemical_formula_sum            'C Ca O3'
_chemical_name_mineral           Calcite
_space_group_IT_number           167
_symmetry_space_group_name_Hall  '-R 3 2"c'
_symmetry_space_group_name_H-M   'R -3 c :H'
_cell_angle_alpha                90
_cell_angle_beta                 90
_cell_angle_gamma                120
_cell_length_a                   4.988
_cell_length_b                   4.988
_cell_length_c                   17.061
_cell_formula_units_Z            6
_cell_volume                     367.611
_database_code_amcsd             0000984
_diffrn_ambient_temperature      297.15
_exptl_crystal_density_diffrn    2.713
_cod_original_sg_symbol_H-M      'R -3 c'
_cod_original_formula_sum        'Ca C O3'
_cod_database_code               9000965
loop_
_space_group_symop_operation_xyz
x,y,z
2/3+x,1/3+y,1/3+z
1/3+x,2/3+y,2/3+z
x,x-y,1/2+z
2/3+x,1/3+x-y,5/6+z
1/3+x,2/3+x-y,1/6+z
y,x,1/2-z
2/3+y,1/3+x,5/6-z
1/3+y,2/3+x,1/6-z
-x+y,y,1/2+z
2/3-x+y,1/3+y,5/6+z
1/3-x+y,2/3+y,1/6+z
-x,-x+y,1/2-z
2/3-x,1/3-x+y,5/6-z
1/3-x,2/3-x+y,1/6-z
-y,-x,1/2+z
2/3-y,1/3-x,5/6+z
1/3-y,2/3-x,1/6+z
x-y,-y,1/2-z
2/3+x-y,1/3-y,5/6-z
1/3+x-y,2/3-y,1/6-z
y,-x+y,-z
2/3+y,1/3-x+y,1/3-z
1/3+y,2/3-x+y,2/3-z
-x+y,-x,z
2/3-x+y,1/3-x,1/3+z
1/3-x+y,2/3-x,2/3+z
-x,-y,-z
2/3-x,1/3-y,1/3-z
1/3-x,2/3-y,2/3-z
-y,x-y,z
2/3-y,1/3+x-y,1/3+z
1/3-y,2/3+x-y,2/3+z
x-y,x,-z
2/3+x-y,1/3+x,1/3-z
1/3+x-y,2/3+x,2/3-z
loop_
_atom_site_aniso_label
_atom_site_aniso_U_11
_atom_site_aniso_U_22
_atom_site_aniso_U_33
_atom_site_aniso_U_12
_atom_site_aniso_U_13
_atom_site_aniso_U_23
Ca 0.01153 0.01153 0.01253 0.00577 0.00000 0.00000
C 0.01134 0.01134 0.01180 0.00567 0.00000 0.00000
O 0.01342 0.02420 0.02345 0.01210 -0.00411 -0.00821
loop_
_atom_site_label
_atom_site_fract_x
_atom_site_fract_y
_atom_site_fract_z
Ca 0.00000 0.00000 0.00000
C 0.00000 0.00000 0.25000
O 0.25670 0.00000 0.25000
loop_
_cod_related_entry_id
_cod_related_entry_database
_cod_related_entry_code
1 AMCSD 0000984

#------------------------------------------------------------------------------
#$Date: 2024-04-18 16:56:43 +0100 (Thu, 18 Apr 2024) $
#$Revision: 291269 $
#$URL: svn://www.crystallography.net/cod/cif/9/00/09/9000966.cif $
#------------------------------------------------------------------------------
#
# This file is available in the Crystallography Open Database (COD),
# http://www.crystallography.net/. The original data for this entry
# were provided the American Mineralogist Crystal Structure Database,
# http://rruff.geo.arizona.edu/AMS/amcsd.php
#
# The file may be used within the scientific community so long as
# proper attribution is given to the journal article from which the
# data were obtained.
#
data_9000966
loop_
_publ_author_name
'Markgraf, S. A.'
'Reeder, R. J.'
_publ_section_title
;
 High-temperature structure refinements of calcite and magnesite
 Sample: T = 200 C
;
_journal_name_full               'American Mineralogist'
_journal_page_first              590
_journal_page_last               600
_journal_volume                  70
_journal_year                    1985
_chemical_formula_sum            'C Ca O3'
_chemical_name_mineral           Calcite
_space_group_IT_number           167
_symmetry_space_group_name_Hall  '-R 3 2"c'
_symmetry_space_group_name_H-M   'R -3 c :H'
_cell_angle_alpha                90
_cell_angle_beta                 90
_cell_angle_gamma                120
_cell_length_a                   4.984
_cell_length_b                   4.984
_cell_length_c                   17.121
_cell_formula_units_Z            6
_cell_volume                     368.312
_database_code_amcsd             0000985
_diffrn_ambient_temperature      473.15
_exptl_crystal_density_diffrn    2.707
_cod_original_sg_symbol_H-M      'R -3 c'
_cod_original_formula_sum        'Ca C O3'
_cod_database_code               9000966
loop_
_space_group_symop_operation_xyz
x,y,z
2/3+x,1/3+y,1/3+z
1/3+x,2/3+y,2/3+z
x,x-y,1/2+z
2/3+x,1/3+x-y,5/6+z
1/3+x,2/3+x-y,1/6+z
y,x,1/2-z
2/3+y,1/3+x,5/6-z
1/3+y,2/3+x,1/6-z
-x+y,y,1/2+z
2/3-x+y,1/3+y,5/6+z
1/3-x+y,2/3+y,1/6+z
-x,-x+y,1/2-z
2/3-x,1/3-x+y,5/6-z
1/3-x,2/3-x+y,1/6-z
-y,-x,1/2+z
2/3-y,1/3-x,5/6+z
1/3-y,2/3-x,1/6+z
x-y,-y,1/2-z
2/3+x-y,1/3-y,5/6-z
1/3+x-y,2/3-y,1/6-z
y,-x+y,-z
2/3+y,1/3-x+y,1/3-z
1/3+y,2/3-x+y,2/3-z
-x+y,-x,z
2/3-x+y,1/3-x,1/3+z
1/3-x+y,2/3-x,2/3+z
-x,-y,-z
2/3-x,1/3-y,1/3-z
1/3-x,2/3-y,2/3-z
-y,x-y,z
2/3-y,1/3+x-y,1/3+z
1/3-y,2/3+x-y,2/3+z
x-y,x,-z
2/3+x-y,1/3+x,1/3-z
1/3+x-y,2/3+x,2/3-z
loop_
_atom_site_aniso_label
_atom_site_aniso_U_11
_atom_site_aniso_U_22
_atom_site_aniso_U_33
_atom_site_aniso_U_12
_atom_site_aniso_U_13
_atom_site_aniso_U_23
Ca 0.01614 0.01614 0.01648 0.00807 0.00000 0.00000
C 0.01501 0.01501 0.01500 0.00750 0.00000 0.00000
O 0.01840 0.03549 0.03282 0.01774 -0.00618 -0.01235
loop_
_atom_site_label
_atom_site_fract_x
_atom_site_fract_y
_atom_site_fract_z
Ca 0.00000 0.00000 0.00000
C 0.00000 0.00000 0.25000
O 0.25620 0.00000 0.25000
loop_
_cod_related_entry_id
_cod_related_entry_database
_cod_related_entry_code
1 AMCSD 0000985

#------------------------------------------------------------------------------
#$Date: 2024-04-18 16:56:43 +0100 (Thu, 18 Apr 2024) $
#$Revision: 291269 $
#$URL: svn://www.crystallography.net/cod/cif/9/00/09/9000967.cif $
#------------------------------------------------------------------------------
#
# This file is available in the Crystallography Open Database (COD),
# http://www.crystallography.net/. The original data for this entry
# were provided the American Mineralogist Crystal Structure Database,
# http://rruff.geo.arizona.edu/AMS/amcsd.php
#
# The file may be used within the scientific community so long as
# proper attribution is given to the journal article from which the
# data were obtained.
#
data_9000967
loop_
_publ_author_name
'Markgraf, S. A.'
'Reeder, R. J.'
_publ_section_title
;
 High-temperature structure refinements of calcite and magnesite
 Sample: T = 400 C
;
_journal_name_full               'American Mineralogist'
_journal_page_first              590
_journal_page_last               600
_journal_volume                  70
_journal_year                    1985
_chemical_formula_sum            'C Ca O3'
_chemical_name_mineral           Calcite
_space_group_IT_number           167
_symmetry_space_group_name_Hall  '-R 3 2"c'
_symmetry_space_group_name_H-M   'R -3 c :H'
_cell_angle_alpha                90
_cell_angle_beta                 90
_cell_angle_gamma                120
_cell_length_a                   4.980
_cell_length_b                   4.980
_cell_length_c                   17.224
_cell_formula_units_Z            6
_cell_volume                     369.933
_database_code_amcsd             0000986
_diffrn_ambient_temperature      673.15
_exptl_crystal_density_diffrn    2.696
_cod_original_sg_symbol_H-M      'R -3 c'
_cod_original_formula_sum        'Ca C O3'
_cod_database_code               9000967
loop_
_space_group_symop_operation_xyz
x,y,z
2/3+x,1/3+y,1/3+z
1/3+x,2/3+y,2/3+z
x,x-y,1/2+z
2/3+x,1/3+x-y,5/6+z
1/3+x,2/3+x-y,1/6+z
y,x,1/2-z
2/3+y,1/3+x,5/6-z
1/3+y,2/3+x,1/6-z
-x+y,y,1/2+z
2/3-x+y,1/3+y,5/6+z
1/3-x+y,2/3+y,1/6+z
-x,-x+y,1/2-z
2/3-x,1/3-x+y,5/6-z
1/3-x,2/3-x+y,1/6-z
-y,-x,1/2+z
2/3-y,1/3-x,5/6+z
1/3-y,2/3-x,1/6+z
x-y,-y,1/2-z
2/3+x-y,1/3-y,5/6-z
1/3+x-y,2/3-y,1/6-z
y,-x+y,-z
2/3+y,1/3-x+y,1/3-z
1/3+y,2/3-x+y,2/3-z
-x+y,-x,z
2/3-x+y,1/3-x,1/3+z
1/3-x+y,2/3-x,2/3+z
-x,-y,-z
2/3-x,1/3-y,1/3-z
1/3-x,2/3-y,2/3-z
-y,x-y,z
2/3-y,1/3+x-y,1/3+z
1/3-y,2/3+x-y,2/3+z
x-y,x,-z
2/3+x-y,1/3+x,1/3-z
1/3+x-y,2/3+x,2/3-z
loop_
_atom_site_aniso_label
_atom_site_aniso_U_11
_atom_site_aniso_U_22
_atom_site_aniso_U_33
_atom_site_aniso_U_12
_atom_site_aniso_U_13
_atom_site_aniso_U_23
Ca 0.02535 0.02535 0.03457 0.01267 0.00000 0.00000
C 0.02167 0.02167 0.03306 0.01084 0.00000 0.00000
O 0.02921 0.05465 0.06162 0.02733 -0.00960 -0.01919
loop_
_atom_site_label
_atom_site_fract_x
_atom_site_fract_y
_atom_site_fract_z
Ca 0.00000 0.00000 0.00000
C 0.00000 0.00000 0.25000
O 0.25580 0.00000 0.25000
loop_
_cod_related_entry_id
_cod_related_entry_database
_cod_related_entry_code
1 AMCSD 0000986

#------------------------------------------------------------------------------
#$Date: 2024-04-18 16:56:43 +0100 (Thu, 18 Apr 2024) $
#$Revision: 291269 $
#$URL: svn://www.crystallography.net/cod/cif/9/00/09/9000968.cif $
#------------------------------------------------------------------------------
#
# This file is available in the Crystallography Open Database (COD),
# http://www.crystallography.net/. The original data for this entry
# were provided the American Mineralogist Crystal Structure Database,
# http://rruff.geo.arizona.edu/AMS/amcsd.php
#
# The file may be used within the scientific community so long as
# proper attribution is given to the journal article from which the
# data were obtained.
#
data_9000968
loop_
_publ_author_name
'Markgraf, S. A.'
'Reeder, R. J.'
_publ_section_title
;
 High-temperature structure refinements of calcite and magnesite
 Sample: T = 600 C
;
_journal_name_full               'American Mineralogist'
_journal_page_first              590
_journal_page_last               600
_journal_volume                  70
_journal_year                    1985
_chemical_formula_sum            'C Ca O3'
_chemical_name_mineral           Calcite
_space_group_IT_number           167
_symmetry_space_group_name_Hall  '-R 3 2"c'
_symmetry_space_group_name_H-M   'R -3 c :H'
_cell_angle_alpha                90
_cell_angle_beta                 90
_cell_angle_gamma                120
_cell_length_a                   4.978
_cell_length_b                   4.978
_cell_length_c                   17.354
_cell_formula_units_Z            6
_cell_volume                     372.426
_database_code_amcsd             0000987
_diffrn_ambient_temperature      873.15
_exptl_crystal_density_diffrn    2.678
_cod_original_sg_symbol_H-M      'R -3 c'
_cod_original_formula_sum        'Ca C O3'
_cod_database_code               9000968
loop_
_space_group_symop_operation_xyz
x,y,z
2/3+x,1/3+y,1/3+z
1/3+x,2/3+y,2/3+z
x,x-y,1/2+z
2/3+x,1/3+x-y,5/6+z
1/3+x,2/3+x-y,1/6+z
y,x,1/2-z
2/3+y,1/3+x,5/6-z
1/3+y,2/3+x,1/6-z
-x+y,y,1/2+z
2/3-x+y,1/3+y,5/6+z
1/3-x+y,2/3+y,1/6+z
-x,-x+y,1/2-z
2/3-x,1/3-x+y,5/6-z
1/3-x,2/3-x+y,1/6-z
-y,-x,1/2+z
2/3-y,1/3-x,5/6+z
1/3-y,2/3-x,1/6+z
x-y,-y,1/2-z
2/3+x-y,1/3-y,5/6-z
1/3+x-y,2/3-y,1/6-z
y,-x+y,-z
2/3+y,1/3-x+y,1/3-z
1/3+y,2/3-x+y,2/3-z
-x+y,-x,z
2/3-x+y,1/3-x,1/3+z
1/3-x+y,2/3-x,2/3+z
-x,-y,-z
2/3-x,1/3-y,1/3-z
1/3-x,2/3-y,2/3-z
-y,x-y,z
2/3-y,1/3+x-y,1/3+z
1/3-y,2/3+x-y,2/3+z
x-y,x,-z
2/3+x-y,1/3+x,1/3-z
1/3+x-y,2/3+x,2/3-z
loop_
_atom_site_aniso_label
_atom_site_aniso_U_11
_atom_site_aniso_U_22
_atom_site_aniso_U_33
_atom_site_aniso_U_12
_atom_site_aniso_U_13
_atom_site_aniso_U_23
Ca 0.03597 0.03597 0.03707 0.01798 0.00000 0.00000
C 0.03352 0.03352 0.03204 0.01676 0.00000 0.00000
O 0.04049 0.07438 0.07629 0.03719 -0.01497 -0.02994
loop_
_atom_site_label
_atom_site_fract_x
_atom_site_fract_y
_atom_site_fract_z
Ca 0.00000 0.00000 0.00000
C 0.00000 0.00000 0.25000
O 0.25470 0.00000 0.25000
loop_
_cod_related_entry_id
_cod_related_entry_database
_cod_related_entry_code
1 AMCSD 0000987

#------------------------------------------------------------------------------
#$Date: 2024-04-18 16:56:43 +0100 (Thu, 18 Apr 2024) $
#$Revision: 291269 $
#$URL: svn://www.crystallography.net/cod/cif/9/00/09/9000969.cif $
#------------------------------------------------------------------------------
#
# This file is available in the Crystallography Open Database (COD),
# http://www.crystallography.net/. The original data for this entry
# were provided the American Mineralogist Crystal Structure Database,
# http://rruff.geo.arizona.edu/AMS/amcsd.php
#
# The file may be used within the scientific community so long as
# proper attribution is given to the journal article from which the
# data were obtained.
#
data_9000969
loop_
_publ_author_name
'Markgraf, S. A.'
'Reeder, R. J.'
_publ_section_title
;
 High-temperature structure refinements of calcite and magnesite
 Sample: T = 750 C
;
_journal_name_full               'American Mineralogist'
_journal_page_first              590
_journal_page_last               600
_journal_volume                  70
_journal_year                    1985
_chemical_formula_sum            'C Ca O3'
_chemical_name_mineral           Calcite
_space_group_IT_number           167
_symmetry_space_group_name_Hall  '-R 3 2"c'
_symmetry_space_group_name_H-M   'R -3 c :H'
_cell_angle_alpha                90
_cell_angle_beta                 90
_cell_angle_gamma                120
_cell_length_a                   4.978
_cell_length_b                   4.978
_cell_length_c                   17.462
_cell_formula_units_Z            6
_cell_volume                     374.744
_database_code_amcsd             0000988
_diffrn_ambient_temperature      1023.15
_exptl_crystal_density_diffrn    2.661
_cod_original_sg_symbol_H-M      'R -3 c'
_cod_original_formula_sum        'Ca C O3'
_cod_database_code               9000969
loop_
_space_group_symop_operation_xyz
x,y,z
2/3+x,1/3+y,1/3+z
1/3+x,2/3+y,2/3+z
x,x-y,1/2+z
2/3+x,1/3+x-y,5/6+z
1/3+x,2/3+x-y,1/6+z
y,x,1/2-z
2/3+y,1/3+x,5/6-z
1/3+y,2/3+x,1/6-z
-x+y,y,1/2+z
2/3-x+y,1/3+y,5/6+z
1/3-x+y,2/3+y,1/6+z
-x,-x+y,1/2-z
2/3-x,1/3-x+y,5/6-z
1/3-x,2/3-x+y,1/6-z
-y,-x,1/2+z
2/3-y,1/3-x,5/6+z
1/3-y,2/3-x,1/6+z
x-y,-y,1/2-z
2/3+x-y,1/3-y,5/6-z
1/3+x-y,2/3-y,1/6-z
y,-x+y,-z
2/3+y,1/3-x+y,1/3-z
1/3+y,2/3-x+y,2/3-z
-x+y,-x,z
2/3-x+y,1/3-x,1/3+z
1/3-x+y,2/3-x,2/3+z
-x,-y,-z
2/3-x,1/3-y,1/3-z
1/3-x,2/3-y,2/3-z
-y,x-y,z
2/3-y,1/3+x-y,1/3+z
1/3-y,2/3+x-y,2/3+z
x-y,x,-z
2/3+x-y,1/3+x,1/3-z
1/3+x-y,2/3+x,2/3-z
loop_
_atom_site_aniso_label
_atom_site_aniso_U_11
_atom_site_aniso_U_22
_atom_site_aniso_U_33
_atom_site_aniso_U_12
_atom_site_aniso_U_13
_atom_site_aniso_U_23
Ca 0.04369 0.04369 0.04727 0.02184 0.00000 0.00000
C 0.03954 0.03954 0.03553 0.01977 0.00000 0.00000
O 0.05178 0.10357 0.09269 0.05178 -0.01888 -0.03776
loop_
_atom_site_label
_atom_site_fract_x
_atom_site_fract_y
_atom_site_fract_z
Ca 0.00000 0.00000 0.00000
C 0.00000 0.00000 0.25000
O 0.25280 0.00000 0.25000
loop_
_cod_related_entry_id
_cod_related_entry_database
_cod_related_entry_code
1 AMCSD 0000988

#------------------------------------------------------------------------------
#$Date: 2024-04-18 16:56:43 +0100 (Thu, 18 Apr 2024) $
#$Revision: 291269 $
#$URL: svn://www.crystallography.net/cod/cif/9/00/09/9000970.cif $
#------------------------------------------------------------------------------
#
# This file is available in the Crystallography Open Database (COD),
# http://www.crystallography.net/. The original data for this entry
# were provided the American Mineralogist Crystal Structure Database,
# http://rruff.geo.arizona.edu/AMS/amcsd.php
#
# The file may be used within the scientific community so long as
# proper attribution is given to the journal article from which the
# data were obtained.
#
data_9000970
loop_
_publ_author_name
'Markgraf, S. A.'
'Reeder, R. J.'
_publ_section_title
;
 High-temperature structure refinements of calcite and magnesite
 Sample: T = 800 C
 Note: B33 of Ca has been altered from the reported value
;
_journal_name_full               'American Mineralogist'
_journal_page_first              590
_journal_page_last               600
_journal_volume                  70
_journal_year                    1985
_chemical_formula_sum            'C Ca O3'
_chemical_name_mineral           Calcite
_space_group_IT_number           167
_symmetry_space_group_name_Hall  '-R 3 2"c'
_symmetry_space_group_name_H-M   'R -3 c :H'
_cell_angle_alpha                90
_cell_angle_beta                 90
_cell_angle_gamma                120
_cell_length_a                   4.976
_cell_length_b                   4.976
_cell_length_c                   17.488
_cell_formula_units_Z            6
_cell_volume                     375.000
_database_code_amcsd             0000989
_diffrn_ambient_temperature      1073.15
_exptl_crystal_density_diffrn    2.659
_cod_original_sg_symbol_H-M      'R -3 c'
_cod_original_formula_sum        'Ca C O3'
_cod_database_code               9000970
loop_
_space_group_symop_operation_xyz
x,y,z
2/3+x,1/3+y,1/3+z
1/3+x,2/3+y,2/3+z
x,x-y,1/2+z
2/3+x,1/3+x-y,5/6+z
1/3+x,2/3+x-y,1/6+z
y,x,1/2-z
2/3+y,1/3+x,5/6-z
1/3+y,2/3+x,1/6-z
-x+y,y,1/2+z
2/3-x+y,1/3+y,5/6+z
1/3-x+y,2/3+y,1/6+z
-x,-x+y,1/2-z
2/3-x,1/3-x+y,5/6-z
1/3-x,2/3-x+y,1/6-z
-y,-x,1/2+z
2/3-y,1/3-x,5/6+z
1/3-y,2/3-x,1/6+z
x-y,-y,1/2-z
2/3+x-y,1/3-y,5/6-z
1/3+x-y,2/3-y,1/6-z
y,-x+y,-z
2/3+y,1/3-x+y,1/3-z
1/3+y,2/3-x+y,2/3-z
-x+y,-x,z
2/3-x+y,1/3-x,1/3+z
1/3-x+y,2/3-x,2/3+z
-x,-y,-z
2/3-x,1/3-y,1/3-z
1/3-x,2/3-y,2/3-z
-y,x-y,z
2/3-y,1/3+x-y,1/3+z
1/3-y,2/3+x-y,2/3+z
x-y,x,-z
2/3+x-y,1/3+x,1/3-z
1/3+x-y,2/3+x,2/3-z
loop_
_atom_site_aniso_label
_atom_site_aniso_U_11
_atom_site_aniso_U_22
_atom_site_aniso_U_33
_atom_site_aniso_U_12
_atom_site_aniso_U_13
_atom_site_aniso_U_23
Ca 0.04817 0.04817 0.04633 0.02408 0.00000 0.00000
C 0.03669 0.03669 0.04958 0.01835 0.00000 0.00000
O 0.05927 0.12324 0.09451 0.06162 -0.02157 -0.04314
loop_
_atom_site_label
_atom_site_fract_x
_atom_site_fract_y
_atom_site_fract_z
Ca 0.00000 0.00000 0.00000
C 0.00000 0.00000 0.25000
O 0.25300 0.00000 0.25000
loop_
_cod_related_entry_id
_cod_related_entry_database
_cod_related_entry_code
1 AMCSD 0000989

#------------------------------------------------------------------------------
#$Date: 2024-05-02 11:48:35 +0100 (Thu, 02 May 2024) $
#$Revision: 291455 $
#$URL: svn://www.crystallography.net/cod/cif/9/00/72/9007286.cif $
#------------------------------------------------------------------------------
#
# This file is available in the Crystallography Open Database (COD),
# http://www.crystallography.net/. The original data for this entry
# were provided the American Mineralogist Crystal Structure Database,
# http://rruff.geo.arizona.edu/AMS/amcsd.php
#
# The file may be used within the scientific community so long as
# proper attribution is given to the journal article from which the
# data were obtained.
#
data_9007286
loop_
_publ_author_name
'Prencipe, M.'
'Pascale, F.'
'Zicovich-Wilson C M'
'Saunders, V. R.'
'Orlando, R.'
'Dovesi, R.'
_publ_section_title
;
 The vibrational spectrum of calcite (CaCO3): an ab initio
 quantum-mechanical calculation
 Note: Theoretically derived structure
;
_journal_name_full               'Physics and Chemistry of Minerals'
_journal_page_first              559
_journal_page_last               564
_journal_paper_doi               10.1007/s00269-004-0418-7
_journal_volume                  31
_journal_year                    2004
_chemical_formula_structural     Ca(CO3)
_chemical_formula_sum            'C Ca O3'
_chemical_name_mineral           Calcite
_space_group_IT_number           167
_symmetry_space_group_name_Hall  '-R 3 2"c'
_symmetry_space_group_name_H-M   'R -3 c :H'
_cell_angle_alpha                90
_cell_angle_beta                 90
_cell_angle_gamma                120
_cell_length_a                   5.0492
_cell_length_b                   5.0492
_cell_length_c                   17.3430
_cell_formula_units_Z            6
_cell_volume                     382.913
_database_code_amcsd             0008879
_exptl_crystal_density_diffrn    2.604
_cod_original_sg_symbol_H-M      'R -3 c'
_cod_original_formula_sum        'Ca C O3'
_cod_database_code               9007286
loop_
_space_group_symop_operation_xyz
x,y,z
2/3+x,1/3+y,1/3+z
1/3+x,2/3+y,2/3+z
x,x-y,1/2+z
2/3+x,1/3+x-y,5/6+z
1/3+x,2/3+x-y,1/6+z
y,x,1/2-z
2/3+y,1/3+x,5/6-z
1/3+y,2/3+x,1/6-z
-x+y,y,1/2+z
2/3-x+y,1/3+y,5/6+z
1/3-x+y,2/3+y,1/6+z
-x,-x+y,1/2-z
2/3-x,1/3-x+y,5/6-z
1/3-x,2/3-x+y,1/6-z
-y,-x,1/2+z
2/3-y,1/3-x,5/6+z
1/3-y,2/3-x,1/6+z
x-y,-y,1/2-z
2/3+x-y,1/3-y,5/6-z
1/3+x-y,2/3-y,1/6-z
y,-x+y,-z
2/3+y,1/3-x+y,1/3-z
1/3+y,2/3-x+y,2/3-z
-x+y,-x,z
2/3-x+y,1/3-x,1/3+z
1/3-x+y,2/3-x,2/3+z
-x,-y,-z
2/3-x,1/3-y,1/3-z
1/3-x,2/3-y,2/3-z
-y,x-y,z
2/3-y,1/3+x-y,1/3+z
1/3-y,2/3+x-y,2/3+z
x-y,x,-z
2/3+x-y,1/3+x,1/3-z
1/3+x-y,2/3+x,2/3-z
loop_
_atom_site_label
_atom_site_fract_x
_atom_site_fract_y
_atom_site_fract_z
Ca 0.00000 0.00000 0.00000
C 0.00000 0.00000 0.25000
O 0.25642 0.00000 0.25000
loop_
_cod_related_entry_id
_cod_related_entry_database
_cod_related_entry_code
1 AMCSD 0008879

#------------------------------------------------------------------------------
#$Date: 2024-05-02 11:48:35 +0100 (Thu, 02 May 2024) $
#$Revision: 291455 $
#$URL: svn://www.crystallography.net/cod/cif/9/00/76/9007687.cif $
#------------------------------------------------------------------------------
#
# This file is available in the Crystallography Open Database (COD),
# http://www.crystallography.net/. The original data for this entry
# were provided the American Mineralogist Crystal Structure Database,
# http://rruff.geo.arizona.edu/AMS/amcsd.php
#
# The file may be used within the scientific community so long as
# proper attribution is given to the journal article from which the
# data were obtained.
#
data_9007687
loop_
_publ_author_name
'Maslen, E. N.'
'Streltsov, V. A.'
'Streltsova, N. R.'
_publ_section_title
;
 X-ray study of the electron density in calcite, CaCO3
;
_journal_issue                   4
_journal_name_full               'Acta Crystallographica, Section B'
_journal_page_first              636
_journal_page_last               641
_journal_paper_doi               10.1107/S0108768193002575
_journal_volume                  49
_journal_year                    1993
_chemical_formula_sum            'C Ca O3'
_chemical_name_mineral           Calcite
_space_group_IT_number           167
_symmetry_space_group_name_Hall  '-R 3 2"c'
_symmetry_space_group_name_H-M   'R -3 c :H'
_cell_angle_alpha                90
_cell_angle_beta                 90
_cell_angle_gamma                120
_cell_length_a                   4.991
_cell_length_b                   4.991
_cell_length_c                   17.062
_cell_formula_units_Z            6
_cell_volume                     368.074
_exptl_crystal_density_diffrn    2.709
_cod_duplicate_entry             2100992
_cod_original_sg_symbol_H-M      'R -3 c'
_cod_original_formula_sum        'Ca C O3'
_cod_database_code               9007687
loop_
_symmetry_equiv_pos_as_xyz
x,y,z
2/3+x,1/3+y,1/3+z
1/3+x,2/3+y,2/3+z
x,x-y,1/2+z
2/3+x,1/3+x-y,5/6+z
1/3+x,2/3+x-y,1/6+z
y,x,1/2-z
2/3+y,1/3+x,5/6-z
1/3+y,2/3+x,1/6-z
-x+y,y,1/2+z
2/3-x+y,1/3+y,5/6+z
1/3-x+y,2/3+y,1/6+z
-x,-x+y,1/2-z
2/3-x,1/3-x+y,5/6-z
1/3-x,2/3-x+y,1/6-z
-y,-x,1/2+z
2/3-y,1/3-x,5/6+z
1/3-y,2/3-x,1/6+z
x-y,-y,1/2-z
2/3+x-y,1/3-y,5/6-z
1/3+x-y,2/3-y,1/6-z
y,-x+y,-z
2/3+y,1/3-x+y,1/3-z
1/3+y,2/3-x+y,2/3-z
-x+y,-x,z
2/3-x+y,1/3-x,1/3+z
1/3-x+y,2/3-x,2/3+z
-x,-y,-z
2/3-x,1/3-y,1/3-z
1/3-x,2/3-y,2/3-z
-y,x-y,z
2/3-y,1/3+x-y,1/3+z
1/3-y,2/3+x-y,2/3+z
x-y,x,-z
2/3+x-y,1/3+x,1/3-z
1/3+x-y,2/3+x,2/3-z
loop_
_atom_site_aniso_label
_atom_site_aniso_U_11
_atom_site_aniso_U_22
_atom_site_aniso_U_33
_atom_site_aniso_U_12
_atom_site_aniso_U_13
_atom_site_aniso_U_23
Ca 0.01024 0.01024 0.00980 0.00512 0.00000 0.00000
C 0.00910 0.00910 0.01060 0.00455 0.00000 0.00000
O 0.01150 0.02220 0.01950 0.01110 -0.00400 -0.00800
loop_
_atom_site_label
_atom_site_fract_x
_atom_site_fract_y
_atom_site_fract_z
Ca 0.00000 0.00000 0.00000
C 0.00000 0.00000 0.25000
O 0.25730 0.00000 0.25000

#------------------------------------------------------------------------------
#$Date: 2024-05-02 11:48:35 +0100 (Thu, 02 May 2024) $
#$Revision: 291455 $
#$URL: svn://www.crystallography.net/cod/cif/9/00/76/9007689.cif $
#------------------------------------------------------------------------------
#
# This file is available in the Crystallography Open Database (COD),
# http://www.crystallography.net/. The original data for this entry
# were provided the American Mineralogist Crystal Structure Database,
# http://rruff.geo.arizona.edu/AMS/amcsd.php
#
# The file may be used within the scientific community so long as
# proper attribution is given to the journal article from which the
# data were obtained.
#
data_9007689
loop_
_publ_author_name
'Maslen, E. N.'
'Streltsov, V. A.'
'Streltsova, N. R.'
'Ishizawa, N.'
_publ_section_title
;
 Electron density and optical anisotropy in rhombohedral carbonates.
 III. Synchrotron X-ray studies of CaCO3, MgCO3 and MnCO3
;
_journal_issue                   6
_journal_name_full               'Acta Crystallographica, Section B'
_journal_page_first              929
_journal_page_last               939
_journal_paper_doi               10.1107/S0108768195006434
_journal_volume                  51
_journal_year                    1995
_chemical_formula_sum            'C Ca O3'
_chemical_name_mineral           Calcite
_space_group_IT_number           167
_symmetry_space_group_name_Hall  '-R 3 2"c'
_symmetry_space_group_name_H-M   'R -3 c :H'
_cell_angle_alpha                90
_cell_angle_beta                 90
_cell_angle_gamma                120
_cell_length_a                   4.988
_cell_length_b                   4.988
_cell_length_c                   17.068
_cell_formula_units_Z            6
_cell_volume                     367.761
_database_code_amcsd             0009890
_exptl_crystal_density_diffrn    2.712
_cod_original_sg_symbol_H-M      'R -3 c'
_cod_original_formula_sum        'Ca C O3'
_cod_database_code               9007689
loop_
_space_group_symop_operation_xyz
x,y,z
2/3+x,1/3+y,1/3+z
1/3+x,2/3+y,2/3+z
x,x-y,1/2+z
2/3+x,1/3+x-y,5/6+z
1/3+x,2/3+x-y,1/6+z
y,x,1/2-z
2/3+y,1/3+x,5/6-z
1/3+y,2/3+x,1/6-z
-x+y,y,1/2+z
2/3-x+y,1/3+y,5/6+z
1/3-x+y,2/3+y,1/6+z
-x,-x+y,1/2-z
2/3-x,1/3-x+y,5/6-z
1/3-x,2/3-x+y,1/6-z
-y,-x,1/2+z
2/3-y,1/3-x,5/6+z
1/3-y,2/3-x,1/6+z
x-y,-y,1/2-z
2/3+x-y,1/3-y,5/6-z
1/3+x-y,2/3-y,1/6-z
y,-x+y,-z
2/3+y,1/3-x+y,1/3-z
1/3+y,2/3-x+y,2/3-z
-x+y,-x,z
2/3-x+y,1/3-x,1/3+z
1/3-x+y,2/3-x,2/3+z
-x,-y,-z
2/3-x,1/3-y,1/3-z
1/3-x,2/3-y,2/3-z
-y,x-y,z
2/3-y,1/3+x-y,1/3+z
1/3-y,2/3+x-y,2/3+z
x-y,x,-z
2/3+x-y,1/3+x,1/3-z
1/3+x-y,2/3+x,2/3-z
loop_
_atom_site_aniso_label
_atom_site_aniso_U_11
_atom_site_aniso_U_22
_atom_site_aniso_U_33
_atom_site_aniso_U_12
_atom_site_aniso_U_13
_atom_site_aniso_U_23
Ca 0.00988 0.00988 0.00932 0.00494 0.00000 0.00000
C 0.00834 0.00834 0.01080 0.00417 0.00000 0.00000
O 0.01129 0.02200 0.02020 0.01100 -0.00424 -0.00848
loop_
_atom_site_label
_atom_site_fract_x
_atom_site_fract_y
_atom_site_fract_z
Ca 0.00000 0.00000 0.00000
C 0.00000 0.00000 0.25000
O 0.25700 0.00000 0.25000
loop_
_cod_related_entry_id
_cod_related_entry_database
_cod_related_entry_code
1 AMCSD 0009890

#------------------------------------------------------------------------------
#$Date: 2024-05-06 08:39:41 +0100 (Mon, 06 May 2024) $
#$Revision: 291735 $
#$URL: svn://www.crystallography.net/cod/cif/9/00/96/9009667.cif $
#------------------------------------------------------------------------------
#
# This file is available in the Crystallography Open Database (COD),
# http://www.crystallography.net/. The original data for this entry
# were provided the American Mineralogist Crystal Structure Database,
# http://rruff.geo.arizona.edu/AMS/amcsd.php
#
# The file may be used within the scientific community so long as
# proper attribution is given to the journal article from which the
# data were obtained.
#
data_9009667
loop_
_publ_author_name
'Sitepu, H.'
'O'Connor B H'
'Li, D.'
_publ_section_title
;
 Comparative evaluation of the March and generalized spherical harmonic
 preferred orientation models using X-ray diffraction data for molybdite
 and calcite powders
 Note: March model
;
_journal_name_full               'Journal of Applied Crystallography'
_journal_page_first              158
_journal_page_last               167
_journal_paper_doi               10.1107/S0021889804031231
_journal_volume                  38
_journal_year                    2005
_chemical_compound_source        Synthetic
_chemical_formula_sum            'C Ca O3'
_chemical_name_mineral           Calcite
_space_group_IT_number           167
_symmetry_space_group_name_Hall  '-R 3 2"c'
_symmetry_space_group_name_H-M   'R -3 c :H'
_cell_angle_alpha                90
_cell_angle_beta                 90
_cell_angle_gamma                120
_cell_length_a                   4.991
_cell_length_b                   4.991
_cell_length_c                   17.068
_cell_formula_units_Z            6
_cell_volume                     368.204
_database_code_amcsd             0012867
_exptl_crystal_density_diffrn    2.708
_cod_original_sg_symbol_H-M      'R -3 c'
_cod_original_formula_sum        'Ca C O3'
_cod_database_code               9009667
loop_
_space_group_symop_operation_xyz
x,y,z
2/3+x,1/3+y,1/3+z
1/3+x,2/3+y,2/3+z
x,x-y,1/2+z
2/3+x,1/3+x-y,5/6+z
1/3+x,2/3+x-y,1/6+z
y,x,1/2-z
2/3+y,1/3+x,5/6-z
1/3+y,2/3+x,1/6-z
-x+y,y,1/2+z
2/3-x+y,1/3+y,5/6+z
1/3-x+y,2/3+y,1/6+z
-x,-x+y,1/2-z
2/3-x,1/3-x+y,5/6-z
1/3-x,2/3-x+y,1/6-z
-y,-x,1/2+z
2/3-y,1/3-x,5/6+z
1/3-y,2/3-x,1/6+z
x-y,-y,1/2-z
2/3+x-y,1/3-y,5/6-z
1/3+x-y,2/3-y,1/6-z
y,-x+y,-z
2/3+y,1/3-x+y,1/3-z
1/3+y,2/3-x+y,2/3-z
-x+y,-x,z
2/3-x+y,1/3-x,1/3+z
1/3-x+y,2/3-x,2/3+z
-x,-y,-z
2/3-x,1/3-y,1/3-z
1/3-x,2/3-y,2/3-z
-y,x-y,z
2/3-y,1/3+x-y,1/3+z
1/3-y,2/3+x-y,2/3+z
x-y,x,-z
2/3+x-y,1/3+x,1/3-z
1/3+x-y,2/3+x,2/3-z
loop_
_atom_site_label
_atom_site_fract_x
_atom_site_fract_y
_atom_site_fract_z
_atom_site_U_iso_or_equiv
Ca 0.00000 0.00000 0.00000 0.01550
C 0.00000 0.00000 0.25000 0.01771
O 0.24500 0.00000 0.25000 0.01771
loop_
_cod_related_entry_id
_cod_related_entry_database
_cod_related_entry_code
1 AMCSD 0012867

#------------------------------------------------------------------------------
#$Date: 2024-05-06 08:39:41 +0100 (Mon, 06 May 2024) $
#$Revision: 291735 $
#$URL: svn://www.crystallography.net/cod/cif/9/00/96/9009668.cif $
#------------------------------------------------------------------------------
#
# This file is available in the Crystallography Open Database (COD),
# http://www.crystallography.net/. The original data for this entry
# were provided the American Mineralogist Crystal Structure Database,
# http://rruff.geo.arizona.edu/AMS/amcsd.php
#
# The file may be used within the scientific community so long as
# proper attribution is given to the journal article from which the
# data were obtained.
#
data_9009668
loop_
_publ_author_name
'Sitepu, H.'
'O'Connor B H'
'Li, D.'
_publ_section_title
;
 Comparative evaluation of the March and generalized spherical harmonic
 preferred orientation models using X-ray diffraction data for molybdite
 and calcite powders
 Note: GSH model
;
_journal_name_full               'Journal of Applied Crystallography'
_journal_page_first              158
_journal_page_last               167
_journal_paper_doi               10.1107/S0021889804031231
_journal_volume                  38
_journal_year                    2005
_chemical_compound_source        Synthetic
_chemical_formula_sum            'C Ca O3'
_chemical_name_mineral           Calcite
_space_group_IT_number           167
_symmetry_space_group_name_Hall  '-R 3 2"c'
_symmetry_space_group_name_H-M   'R -3 c :H'
_cell_angle_alpha                90
_cell_angle_beta                 90
_cell_angle_gamma                120
_cell_length_a                   4.9920
_cell_length_b                   4.9920
_cell_length_c                   17.069
_cell_formula_units_Z            6
_cell_volume                     368.373
_database_code_amcsd             0012868
_exptl_crystal_density_diffrn    2.707
_cod_original_sg_symbol_H-M      'R -3 c'
_cod_original_formula_sum        'Ca C O3'
_cod_database_code               9009668
loop_
_space_group_symop_operation_xyz
x,y,z
2/3+x,1/3+y,1/3+z
1/3+x,2/3+y,2/3+z
x,x-y,1/2+z
2/3+x,1/3+x-y,5/6+z
1/3+x,2/3+x-y,1/6+z
y,x,1/2-z
2/3+y,1/3+x,5/6-z
1/3+y,2/3+x,1/6-z
-x+y,y,1/2+z
2/3-x+y,1/3+y,5/6+z
1/3-x+y,2/3+y,1/6+z
-x,-x+y,1/2-z
2/3-x,1/3-x+y,5/6-z
1/3-x,2/3-x+y,1/6-z
-y,-x,1/2+z
2/3-y,1/3-x,5/6+z
1/3-y,2/3-x,1/6+z
x-y,-y,1/2-z
2/3+x-y,1/3-y,5/6-z
1/3+x-y,2/3-y,1/6-z
y,-x+y,-z
2/3+y,1/3-x+y,1/3-z
1/3+y,2/3-x+y,2/3-z
-x+y,-x,z
2/3-x+y,1/3-x,1/3+z
1/3-x+y,2/3-x,2/3+z
-x,-y,-z
2/3-x,1/3-y,1/3-z
1/3-x,2/3-y,2/3-z
-y,x-y,z
2/3-y,1/3+x-y,1/3+z
1/3-y,2/3+x-y,2/3+z
x-y,x,-z
2/3+x-y,1/3+x,1/3-z
1/3+x-y,2/3+x,2/3-z
loop_
_atom_site_label
_atom_site_fract_x
_atom_site_fract_y
_atom_site_fract_z
_atom_site_U_iso_or_equiv
Ca 0.00000 0.00000 0.00000 0.01525
C 0.00000 0.00000 0.25000 0.02084
O 0.25000 0.00000 0.25000 0.02084
loop_
_cod_related_entry_id
_cod_related_entry_database
_cod_related_entry_code
1 AMCSD 0012868

#------------------------------------------------------------------------------
#$Date: 2024-05-16 07:36:09 +0100 (Thu, 16 May 2024) $
#$Revision: 291877 $
#$URL: svn://www.crystallography.net/cod/cif/9/01/35/9013565.cif $
#------------------------------------------------------------------------------
#
# This file is available in the Crystallography Open Database (COD),
# http://www.crystallography.net/. The original data for this entry
# were provided the American Mineralogist Crystal Structure Database,
# http://rruff.geo.arizona.edu/AMS/amcsd.php
#
# The file may be used within the scientific community so long as
# proper attribution is given to the journal article from which the
# data were obtained.
#
data_9013565
loop_
_publ_author_name
'Wang, J.'
'Becker, U.'
_publ_section_title
;
 Structure and carbonate orientation of vaterite (CaCO3)
 Note: Coordinates corrected by Wang, Sept, 2009
;
_journal_name_full               'American Mineralogist'
_journal_page_first              380
_journal_page_last               386
_journal_paper_doi               10.2138/am.2009.2939
_journal_volume                  94
_journal_year                    2009
_chemical_compound_source        theoretical
_chemical_formula_sum            'C Ca O3'
_chemical_name_mineral           Vaterite
_space_group_IT_number           179
_symmetry_space_group_name_Hall  'P 65 2 (0 0 1)'
_symmetry_space_group_name_H-M   'P 65 2 2'
_cell_angle_alpha                90
_cell_angle_beta                 90
_cell_angle_gamma                120
_cell_length_a                   7.290
_cell_length_b                   7.290
_cell_length_c                   25.302
_cell_formula_units_Z            18
_cell_volume                     1164.503
_database_code_amcsd             0004854
_exptl_crystal_density_diffrn    2.569
_cod_original_formula_sum        'Ca C O3'
_cod_database_code               9013565
loop_
_space_group_symop_operation_xyz
x,y,z
x,x-y,5/6-z
x-y,x,5/6+z
y,x,2/3-z
-y,x-y,2/3+z
-x+y,y,1/2-z
-x,-y,1/2+z
-x,-x+y,1/3-z
-x+y,-x,1/3+z
-y,-x,1/6-z
y,-x+y,1/6+z
x-y,-y,-z
loop_
_atom_site_label
_atom_site_fract_x
_atom_site_fract_y
_atom_site_fract_z
Ca1 0.99061 0.00939 0.08333
Ca2 0.69615 0.30385 0.08333
Ca3 0.33860 0.66140 0.08333
C1 0.05054 0.37261 0.99480
C2 0.00000 0.30905 0.66667
O1 0.00000 0.13101 0.66667
O2 0.98950 0.39074 0.62171
O3 0.96481 0.28935 0.94960
O4 0.22645 0.55089 0.99617
O5 0.96346 0.28119 0.03914
loop_
_cod_related_entry_id
_cod_related_entry_database
_cod_related_entry_code
1 AMCSD 0004854

#------------------------------------------------------------------------------
#$Date: 2024-05-23 10:45:01 +0100 (Thu, 23 May 2024) $
#$Revision: 292002 $
#$URL: svn://www.crystallography.net/cod/cif/9/01/37/9013799.cif $
#------------------------------------------------------------------------------
#
# This file is available in the Crystallography Open Database (COD),
# http://www.crystallography.net/. The original data for this entry
# were provided the American Mineralogist Crystal Structure Database,
# http://rruff.geo.arizona.edu/AMS/amcsd.php
#
# The file may be used within the scientific community so long as
# proper attribution is given to the journal article from which the
# data were obtained.
#
data_9013799
loop_
_publ_author_name
'Antao, S. M.'
'Hassan, I.'
_publ_section_title
;
 The orthorhombic structure of CaCO3, SrCO3, PbCO3 and BaCO3:
 Linear structural trends
 Note: SXTL
;
_journal_name_full               'The Canadian Mineralogist'
_journal_page_first              1245
_journal_page_last               1255
_journal_paper_doi               10.3749/canmin.47.5.1245
_journal_volume                  47
_journal_year                    2009
_chemical_compound_source        Italy
_chemical_formula_structural     Ca(Co3)
_chemical_formula_sum            'C Ca O3'
_chemical_name_mineral           Aragonite
_space_group_IT_number           62
_symmetry_space_group_name_Hall  '-P 2n 2a'
_symmetry_space_group_name_H-M   'P m c n'
_cell_angle_alpha                90
_cell_angle_beta                 90
_cell_angle_gamma                90
_cell_length_a                   4.96062
_cell_length_b                   7.97006
_cell_length_c                   5.74181
_cell_formula_units_Z            4
_cell_volume                     227.011
_database_code_amcsd             0006300
_exptl_crystal_density_diffrn    2.928
_cod_depositor_comments
;
 Marked entry as being related to an entry in the AMCSD.

 Antanas Vaitkus,
 2019-04-09
;
_cod_original_formula_sum        'Ca C O3'
_cod_database_code               9013799
loop_
_space_group_symop_operation_xyz
x,y,z
1/2-x,y,z
1/2+x,-y,-z
1/2+x,1/2+y,1/2-z
1/2-x,1/2-y,1/2+z
x,1/2-y,1/2+z
-x,1/2+y,1/2-z
-x,-y,-z
loop_
_atom_site_aniso_label
_atom_site_aniso_U_11
_atom_site_aniso_U_22
_atom_site_aniso_U_33
_atom_site_aniso_U_12
_atom_site_aniso_U_13
_atom_site_aniso_U_23
Ca 0.00900 0.00700 0.00900 0.00000 0.00000 0.00000
C 0.00900 0.00900 0.00500 0.00000 0.00000 0.00000
O1 0.01600 0.00700 0.01400 0.00000 0.00000 0.00000
O2 0.00900 0.01200 0.01400 0.00300 0.00000 0.00100
loop_
_atom_site_label
_atom_site_fract_x
_atom_site_fract_y
_atom_site_fract_z
_atom_site_U_iso_or_equiv
Ca 0.25000 0.41500 0.75960 0.00800
C 0.25000 0.76190 -0.08490 0.00800
O1 0.25000 0.92240 -0.09560 0.01300
O2 0.47380 0.68040 -0.08710 0.01200
loop_
_cod_related_entry_id
_cod_related_entry_database
_cod_related_entry_code
1 AMCSD 0006300

#------------------------------------------------------------------------------
#$Date: 2024-05-23 10:45:01 +0100 (Thu, 23 May 2024) $
#$Revision: 292002 $
#$URL: svn://www.crystallography.net/cod/cif/9/01/38/9013800.cif $
#------------------------------------------------------------------------------
#
# This file is available in the Crystallography Open Database (COD),
# http://www.crystallography.net/. The original data for this entry
# were provided the American Mineralogist Crystal Structure Database,
# http://rruff.geo.arizona.edu/AMS/amcsd.php
#
# The file may be used within the scientific community so long as
# proper attribution is given to the journal article from which the
# data were obtained.
#
data_9013800
loop_
_publ_author_name
'Antao, S. M.'
'Hassan, I.'
_publ_section_title
;
 The orthorhombic structure of CaCO3, SrCO3, PbCO3 and BaCO3:
 Linear structural trends
 Note: HRPXRD
;
_journal_name_full               'The Canadian Mineralogist'
_journal_page_first              1245
_journal_page_last               1255
_journal_paper_doi               10.3749/canmin.47.5.1245
_journal_volume                  47
_journal_year                    2009
_chemical_compound_source        Italy
_chemical_formula_structural     Ca(Co3)
_chemical_formula_sum            'C Ca O3'
_chemical_name_mineral           Aragonite
_space_group_IT_number           62
_symmetry_space_group_name_Hall  '-P 2n 2a'
_symmetry_space_group_name_H-M   'P m c n'
_cell_angle_alpha                90
_cell_angle_beta                 90
_cell_angle_gamma                90
_cell_length_a                   4.96062
_cell_length_b                   7.97006
_cell_length_c                   5.74181
_cell_formula_units_Z            4
_cell_volume                     227.011
_database_code_amcsd             0006301
_exptl_crystal_density_diffrn    2.928
_cod_depositor_comments
;
 Updated the publication author list by removing the 'Aragonite' value.

 Antanas Vaitkus,
 2019-04-09

 Marked entry as being related to an entry in the AMCSD.

 Antanas Vaitkus,
 2019-04-09
;
_cod_original_formula_sum        'Ca C O3'
_cod_database_code               9013800
loop_
_space_group_symop_operation_xyz
x,y,z
1/2-x,y,z
1/2+x,-y,-z
1/2+x,1/2+y,1/2-z
1/2-x,1/2-y,1/2+z
x,1/2-y,1/2+z
-x,1/2+y,1/2-z
-x,-y,-z
loop_
_atom_site_label
_atom_site_fract_x
_atom_site_fract_y
_atom_site_fract_z
_atom_site_U_iso_or_equiv
Ca 0.25000 0.41502 0.75770 0.00660
C 0.25000 0.76160 -0.08080 0.01150
O1 0.25000 0.92200 -0.09440 0.01150
O2 0.47500 0.68240 -0.09050 0.01150
loop_
_cod_related_entry_id
_cod_related_entry_database
_cod_related_entry_code
1 AMCSD 0006301

#------------------------------------------------------------------------------
#$Date: 2024-05-23 10:45:01 +0100 (Thu, 23 May 2024) $
#$Revision: 292002 $
#$URL: svn://www.crystallography.net/cod/cif/9/01/38/9013801.cif $
#------------------------------------------------------------------------------
#
# This file is available in the Crystallography Open Database (COD),
# http://www.crystallography.net/. The original data for this entry
# were provided the American Mineralogist Crystal Structure Database,
# http://rruff.geo.arizona.edu/AMS/amcsd.php
#
# The file may be used within the scientific community so long as
# proper attribution is given to the journal article from which the
# data were obtained.
#
data_9013801
loop_
_publ_author_name
'Antao, S. M.'
'Hassan, I.'
_publ_section_title
;
 The orthorhombic structure of CaCO3, SrCO3, PbCO3 and BaCO3:
 Linear structural trends
 Note: HRPXRD
;
_journal_name_full               'The Canadian Mineralogist'
_journal_page_first              1245
_journal_page_last               1255
_journal_paper_doi               10.3749/canmin.47.5.1245
_journal_volume                  47
_journal_year                    2009
_chemical_compound_source        Spain
_chemical_formula_structural     Ca(Co3)
_chemical_formula_sum            'C Ca O3'
_chemical_name_mineral           Aragonite
_space_group_IT_number           62
_symmetry_space_group_name_Hall  '-P 2n 2a'
_symmetry_space_group_name_H-M   'P m c n'
_cell_angle_alpha                90
_cell_angle_beta                 90
_cell_angle_gamma                90
_cell_length_a                   4.96174
_cell_length_b                   7.96918
_cell_length_c                   5.74265
_cell_formula_units_Z            4
_cell_volume                     227.070
_database_code_amcsd             0006302
_exptl_crystal_density_diffrn    2.928
_cod_depositor_comments
;
 Updated the publication author list by removing the 'Aragonite' value.

 Antanas Vaitkus,
 2019-04-09

 Marked entry as being related to an entry in the AMCSD.

 Antanas Vaitkus,
 2019-04-09
;
_cod_original_formula_sum        'Ca C O3'
_cod_database_code               9013801
loop_
_space_group_symop_operation_xyz
x,y,z
1/2-x,y,z
1/2+x,-y,-z
1/2+x,1/2+y,1/2-z
1/2-x,1/2-y,1/2+z
x,1/2-y,1/2+z
-x,1/2+y,1/2-z
-x,-y,-z
loop_
_atom_site_label
_atom_site_fract_x
_atom_site_fract_y
_atom_site_fract_z
_atom_site_U_iso_or_equiv
Ca 0.25000 0.41508 0.75953 0.00735
C 0.25000 0.76120 -0.08420 0.01070
O1 0.25000 0.92280 -0.09470 0.01070
O2 0.47430 0.68059 -0.08710 0.01070
loop_
_cod_related_entry_id
_cod_related_entry_database
_cod_related_entry_code
1 AMCSD 0006302

#------------------------------------------------------------------------------
#$Date: 2024-05-23 10:45:01 +0100 (Thu, 23 May 2024) $
#$Revision: 292002 $
#$URL: svn://www.crystallography.net/cod/cif/9/01/42/9014216.cif $
#------------------------------------------------------------------------------
#
# This file is available in the Crystallography Open Database (COD),
# http://www.crystallography.net/. The original data for this entry
# were provided the American Mineralogist Crystal Structure Database,
# http://rruff.geo.arizona.edu/AMS/amcsd.php
#
# The file may be used within the scientific community so long as
# proper attribution is given to the journal article from which the
# data were obtained.
#
data_9014216
loop_
_publ_author_name
'Antao, S. M.'
'Hassan, I.'
_publ_section_title
;
 Temperature dependence of the structural parameters
 in the transformation of aragonite to calcite,
 as determined from in situ synchrotron powder X-ray-diffraction data
 Note: T = 662 C
 Note: P = 101 kPa
;
_journal_name_full               'The Canadian Mineralogist'
_journal_page_first              1225
_journal_page_last               1236
_journal_paper_doi               10.3749/canmin.48.5.1225
_journal_volume                  48
_journal_year                    2010
_chemical_compound_source        'Cuenca, Spain'
_chemical_formula_sum            'C Ca O3'
_chemical_name_mineral           Calcite
_space_group_IT_number           167
_symmetry_space_group_name_Hall  '-R 3 2"c'
_symmetry_space_group_name_H-M   'R -3 c :H'
_cell_angle_alpha                90
_cell_angle_beta                 90
_cell_angle_gamma                120
_cell_length_a                   4.9759
_cell_length_b                   4.9759
_cell_length_c                   17.4316
_cell_formula_units_Z            6
_cell_volume                     373.776
_database_code_amcsd             0017867
_exptl_crystal_density_diffrn    2.668
_cod_original_sg_symbol_H-M      'R -3 c'
_cod_original_formula_sum        'Ca C O3'
_cod_database_code               9014216
loop_
_space_group_symop_operation_xyz
x,y,z
2/3+x,1/3+y,1/3+z
1/3+x,2/3+y,2/3+z
x,x-y,1/2+z
2/3+x,1/3+x-y,5/6+z
1/3+x,2/3+x-y,1/6+z
y,x,1/2-z
2/3+y,1/3+x,5/6-z
1/3+y,2/3+x,1/6-z
-x+y,y,1/2+z
2/3-x+y,1/3+y,5/6+z
1/3-x+y,2/3+y,1/6+z
-x,-x+y,1/2-z
2/3-x,1/3-x+y,5/6-z
1/3-x,2/3-x+y,1/6-z
-y,-x,1/2+z
2/3-y,1/3-x,5/6+z
1/3-y,2/3-x,1/6+z
x-y,-y,1/2-z
2/3+x-y,1/3-y,5/6-z
1/3+x-y,2/3-y,1/6-z
y,-x+y,-z
2/3+y,1/3-x+y,1/3-z
1/3+y,2/3-x+y,2/3-z
-x+y,-x,z
2/3-x+y,1/3-x,1/3+z
1/3-x+y,2/3-x,2/3+z
-x,-y,-z
2/3-x,1/3-y,1/3-z
1/3-x,2/3-y,2/3-z
-y,x-y,z
2/3-y,1/3+x-y,1/3+z
1/3-y,2/3+x-y,2/3+z
x-y,x,-z
2/3+x-y,1/3+x,1/3-z
1/3+x-y,2/3+x,2/3-z
loop_
_atom_site_label
_atom_site_fract_x
_atom_site_fract_y
_atom_site_fract_z
_atom_site_U_iso_or_equiv
Ca 0.00000 0.00000 0.00000 0.04080
C 0.00000 0.00000 0.25000 0.07200
O1 0.24970 0.00000 0.25000 0.07200
loop_
_cod_related_entry_id
_cod_related_entry_database
_cod_related_entry_code
1 AMCSD 0017867

#------------------------------------------------------------------------------
#$Date: 2024-05-23 10:45:01 +0100 (Thu, 23 May 2024) $
#$Revision: 292002 $
#$URL: svn://www.crystallography.net/cod/cif/9/01/43/9014344.cif $
#------------------------------------------------------------------------------
#
# This file is available in the Crystallography Open Database (COD),
# http://www.crystallography.net/. The original data for this entry
# were provided the American Mineralogist Crystal Structure Database,
# http://rruff.geo.arizona.edu/AMS/amcsd.php
#
# The file may be used within the scientific community so long as
# proper attribution is given to the journal article from which the
# data were obtained.
#
data_9014344
loop_
_publ_author_name
'Antao, S. M.'
'Hassan, I.'
_publ_section_title
;
 Temperature dependence of the structural parameters
 in the transformation of aragonite to calcite,
 as determined from in situ synchrotron powder X-ray-diffraction data
 Note: T = 644 C
 Note: P = 101 kPa
;
_journal_name_full               'The Canadian Mineralogist'
_journal_page_first              1225
_journal_page_last               1236
_journal_paper_doi               10.3749/canmin.48.5.1225
_journal_volume                  48
_journal_year                    2010
_chemical_compound_source        'Cuenca, Spain'
_chemical_formula_sum            'C Ca O3'
_chemical_name_mineral           Calcite
_space_group_IT_number           167
_symmetry_space_group_name_Hall  '-R 3 2"c'
_symmetry_space_group_name_H-M   'R -3 c :H'
_cell_angle_alpha                90
_cell_angle_beta                 90
_cell_angle_gamma                120
_cell_length_a                   4.9761
_cell_length_b                   4.9761
_cell_length_c                   17.4163
_cell_formula_units_Z            6
_cell_volume                     373.478
_database_code_amcsd             0017866
_exptl_crystal_density_diffrn    2.670
_cod_original_sg_symbol_H-M      'R -3 c'
_cod_original_formula_sum        'Ca C O3'
_cod_database_code               9014344
loop_
_space_group_symop_operation_xyz
x,y,z
2/3+x,1/3+y,1/3+z
1/3+x,2/3+y,2/3+z
x,x-y,1/2+z
2/3+x,1/3+x-y,5/6+z
1/3+x,2/3+x-y,1/6+z
y,x,1/2-z
2/3+y,1/3+x,5/6-z
1/3+y,2/3+x,1/6-z
-x+y,y,1/2+z
2/3-x+y,1/3+y,5/6+z
1/3-x+y,2/3+y,1/6+z
-x,-x+y,1/2-z
2/3-x,1/3-x+y,5/6-z
1/3-x,2/3-x+y,1/6-z
-y,-x,1/2+z
2/3-y,1/3-x,5/6+z
1/3-y,2/3-x,1/6+z
x-y,-y,1/2-z
2/3+x-y,1/3-y,5/6-z
1/3+x-y,2/3-y,1/6-z
y,-x+y,-z
2/3+y,1/3-x+y,1/3-z
1/3+y,2/3-x+y,2/3-z
-x+y,-x,z
2/3-x+y,1/3-x,1/3+z
1/3-x+y,2/3-x,2/3+z
-x,-y,-z
2/3-x,1/3-y,1/3-z
1/3-x,2/3-y,2/3-z
-y,x-y,z
2/3-y,1/3+x-y,1/3+z
1/3-y,2/3+x-y,2/3+z
x-y,x,-z
2/3+x-y,1/3+x,1/3-z
1/3+x-y,2/3+x,2/3-z
loop_
_atom_site_label
_atom_site_fract_x
_atom_site_fract_y
_atom_site_fract_z
_atom_site_U_iso_or_equiv
Ca 0.00000 0.00000 0.00000 0.04010
C 0.00000 0.00000 0.25000 0.07000
O1 0.25000 0.00000 0.25000 0.07000
loop_
_cod_related_entry_id
_cod_related_entry_database
_cod_related_entry_code
1 AMCSD 0017866

#------------------------------------------------------------------------------
#$Date: 2024-05-23 10:45:01 +0100 (Thu, 23 May 2024) $
#$Revision: 292002 $
#$URL: svn://www.crystallography.net/cod/cif/9/01/43/9014355.cif $
#------------------------------------------------------------------------------
#
# This file is available in the Crystallography Open Database (COD),
# http://www.crystallography.net/. The original data for this entry
# were provided the American Mineralogist Crystal Structure Database,
# http://rruff.geo.arizona.edu/AMS/amcsd.php
#
# The file may be used within the scientific community so long as
# proper attribution is given to the journal article from which the
# data were obtained.
#
data_9014355
loop_
_publ_author_name
'Antao, S. M.'
'Hassan, I.'
_publ_section_title
;
 Temperature dependence of the structural parameters
 in the transformation of aragonite to calcite,
 as determined from in situ synchrotron powder X-ray-diffraction data
 Note: T = 235 C
 Note: P = 101 kPa
;
_journal_name_full               'The Canadian Mineralogist'
_journal_page_first              1225
_journal_page_last               1236
_journal_paper_doi               10.3749/canmin.48.5.1225
_journal_volume                  48
_journal_year                    2010
_chemical_compound_source        'Cuenca, Spain'
_chemical_formula_sum            'C Ca O3'
_chemical_name_mineral           Aragonite
_space_group_IT_number           62
_symmetry_space_group_name_Hall  '-P 2n 2a'
_symmetry_space_group_name_H-M   'P m c n'
_cell_angle_alpha                90
_cell_angle_beta                 90
_cell_angle_gamma                90
_cell_length_a                   4.9653
_cell_length_b                   8.0088
_cell_length_c                   5.7847
_cell_formula_units_Z            4
_cell_volume                     230.035
_database_code_amcsd             0017836
_exptl_crystal_density_diffrn    2.890
_cod_original_formula_sum        'Ca C O3'
_cod_database_code               9014355
loop_
_space_group_symop_operation_xyz
x,y,z
1/2-x,y,z
1/2+x,-y,-z
1/2+x,1/2+y,1/2-z
1/2-x,1/2-y,1/2+z
x,1/2-y,1/2+z
-x,1/2+y,1/2-z
-x,-y,-z
loop_
_atom_site_label
_atom_site_fract_x
_atom_site_fract_y
_atom_site_fract_z
_atom_site_U_iso_or_equiv
Ca 0.25000 0.41350 0.75420 0.01300
C 0.25000 0.76420 -0.06530 0.03400
O1 0.25000 0.91890 -0.08700 0.03400
O2 0.47310 0.68480 -0.09830 0.03400
loop_
_cod_related_entry_id
_cod_related_entry_database
_cod_related_entry_code
1 AMCSD 0017836

#------------------------------------------------------------------------------
#$Date: 2024-05-23 10:45:01 +0100 (Thu, 23 May 2024) $
#$Revision: 292002 $
#$URL: svn://www.crystallography.net/cod/cif/9/01/44/9014415.cif $
#------------------------------------------------------------------------------
#
# This file is available in the Crystallography Open Database (COD),
# http://www.crystallography.net/. The original data for this entry
# were provided the American Mineralogist Crystal Structure Database,
# http://rruff.geo.arizona.edu/AMS/amcsd.php
#
# The file may be used within the scientific community so long as
# proper attribution is given to the journal article from which the
# data were obtained.
#
data_9014415
loop_
_publ_author_name
'Antao, S. M.'
'Hassan, I.'
_publ_section_title
;
 Temperature dependence of the structural parameters
 in the transformation of aragonite to calcite,
 as determined from in situ synchrotron powder X-ray-diffraction data
 Note: T = 420 C
 Note: P = 101 kPa
;
_journal_name_full               'The Canadian Mineralogist'
_journal_page_first              1225
_journal_page_last               1236
_journal_paper_doi               10.3749/canmin.48.5.1225
_journal_volume                  48
_journal_year                    2010
_chemical_compound_source        'Cuenca, Spain'
_chemical_formula_sum            'C Ca O3'
_chemical_name_mineral           Calcite
_space_group_IT_number           167
_symmetry_space_group_name_Hall  '-R 3 2"c'
_symmetry_space_group_name_H-M   'R -3 c :H'
_cell_angle_alpha                90
_cell_angle_beta                 90
_cell_angle_gamma                120
_cell_length_a                   4.9748
_cell_length_b                   4.9748
_cell_length_c                   17.270
_cell_formula_units_Z            6
_cell_volume                     370.147
_database_code_amcsd             0017855
_exptl_crystal_density_diffrn    2.694
_cod_original_sg_symbol_H-M      'R -3 c'
_cod_original_formula_sum        'Ca C O3'
_cod_database_code               9014415
loop_
_space_group_symop_operation_xyz
x,y,z
2/3+x,1/3+y,1/3+z
1/3+x,2/3+y,2/3+z
x,x-y,1/2+z
2/3+x,1/3+x-y,5/6+z
1/3+x,2/3+x-y,1/6+z
y,x,1/2-z
2/3+y,1/3+x,5/6-z
1/3+y,2/3+x,1/6-z
-x+y,y,1/2+z
2/3-x+y,1/3+y,5/6+z
1/3-x+y,2/3+y,1/6+z
-x,-x+y,1/2-z
2/3-x,1/3-x+y,5/6-z
1/3-x,2/3-x+y,1/6-z
-y,-x,1/2+z
2/3-y,1/3-x,5/6+z
1/3-y,2/3-x,1/6+z
x-y,-y,1/2-z
2/3+x-y,1/3-y,5/6-z
1/3+x-y,2/3-y,1/6-z
y,-x+y,-z
2/3+y,1/3-x+y,1/3-z
1/3+y,2/3-x+y,2/3-z
-x+y,-x,z
2/3-x+y,1/3-x,1/3+z
1/3-x+y,2/3-x,2/3+z
-x,-y,-z
2/3-x,1/3-y,1/3-z
1/3-x,2/3-y,2/3-z
-y,x-y,z
2/3-y,1/3+x-y,1/3+z
1/3-y,2/3+x-y,2/3+z
x-y,x,-z
2/3+x-y,1/3+x,1/3-z
1/3+x-y,2/3+x,2/3-z
loop_
_atom_site_label
_atom_site_fract_x
_atom_site_fract_y
_atom_site_fract_z
_atom_site_U_iso_or_equiv
Ca 0.00000 0.00000 0.00000 0.01730
C 0.00000 0.00000 0.25000 0.05000
O1 0.26000 0.00000 0.25000 0.05000
loop_
_cod_related_entry_id
_cod_related_entry_database
_cod_related_entry_code
1 AMCSD 0017855

#------------------------------------------------------------------------------
#$Date: 2024-05-23 10:45:01 +0100 (Thu, 23 May 2024) $
#$Revision: 292002 $
#$URL: svn://www.crystallography.net/cod/cif/9/01/45/9014524.cif $
#------------------------------------------------------------------------------
#
# This file is available in the Crystallography Open Database (COD),
# http://www.crystallography.net/. The original data for this entry
# were provided the American Mineralogist Crystal Structure Database,
# http://rruff.geo.arizona.edu/AMS/amcsd.php
#
# The file may be used within the scientific community so long as
# proper attribution is given to the journal article from which the
# data were obtained.
#
data_9014524
loop_
_publ_author_name
'Antao, S. M.'
'Hassan, I.'
_publ_section_title
;
 Temperature dependence of the structural parameters
 in the transformation of aragonite to calcite,
 as determined from in situ synchrotron powder X-ray-diffraction data
 Note: T = 599 C
 Note: P = 101 kPa
;
_journal_name_full               'The Canadian Mineralogist'
_journal_page_first              1225
_journal_page_last               1236
_journal_paper_doi               10.3749/canmin.48.5.1225
_journal_volume                  48
_journal_year                    2010
_chemical_compound_source        'Cuenca, Spain'
_chemical_formula_sum            'C Ca O3'
_chemical_name_mineral           Calcite
_space_group_IT_number           167
_symmetry_space_group_name_Hall  '-R 3 2"c'
_symmetry_space_group_name_H-M   'R -3 c :H'
_cell_angle_alpha                90
_cell_angle_beta                 90
_cell_angle_gamma                120
_cell_length_a                   4.9766
_cell_length_b                   4.9766
_cell_length_c                   17.3757
_cell_formula_units_Z            6
_cell_volume                     372.682
_database_code_amcsd             0017864
_exptl_crystal_density_diffrn    2.676
_cod_original_sg_symbol_H-M      'R -3 c'
_cod_original_formula_sum        'Ca C O3'
_cod_database_code               9014524
loop_
_space_group_symop_operation_xyz
x,y,z
2/3+x,1/3+y,1/3+z
1/3+x,2/3+y,2/3+z
x,x-y,1/2+z
2/3+x,1/3+x-y,5/6+z
1/3+x,2/3+x-y,1/6+z
y,x,1/2-z
2/3+y,1/3+x,5/6-z
1/3+y,2/3+x,1/6-z
-x+y,y,1/2+z
2/3-x+y,1/3+y,5/6+z
1/3-x+y,2/3+y,1/6+z
-x,-x+y,1/2-z
2/3-x,1/3-x+y,5/6-z
1/3-x,2/3-x+y,1/6-z
-y,-x,1/2+z
2/3-y,1/3-x,5/6+z
1/3-y,2/3-x,1/6+z
x-y,-y,1/2-z
2/3+x-y,1/3-y,5/6-z
1/3+x-y,2/3-y,1/6-z
y,-x+y,-z
2/3+y,1/3-x+y,1/3-z
1/3+y,2/3-x+y,2/3-z
-x+y,-x,z
2/3-x+y,1/3-x,1/3+z
1/3-x+y,2/3-x,2/3+z
-x,-y,-z
2/3-x,1/3-y,1/3-z
1/3-x,2/3-y,2/3-z
-y,x-y,z
2/3-y,1/3+x-y,1/3+z
1/3-y,2/3+x-y,2/3+z
x-y,x,-z
2/3+x-y,1/3+x,1/3-z
1/3+x-y,2/3+x,2/3-z
loop_
_atom_site_label
_atom_site_fract_x
_atom_site_fract_y
_atom_site_fract_z
_atom_site_U_iso_or_equiv
Ca 0.00000 0.00000 0.00000 0.03720
C 0.00000 0.00000 0.25000 0.06300
O1 0.25090 0.00000 0.25000 0.06300
loop_
_cod_related_entry_id
_cod_related_entry_database
_cod_related_entry_code
1 AMCSD 0017864

#------------------------------------------------------------------------------
#$Date: 2024-05-23 10:45:01 +0100 (Thu, 23 May 2024) $
#$Revision: 292002 $
#$URL: svn://www.crystallography.net/cod/cif/9/01/46/9014611.cif $
#------------------------------------------------------------------------------
#
# This file is available in the Crystallography Open Database (COD),
# http://www.crystallography.net/. The original data for this entry
# were provided the American Mineralogist Crystal Structure Database,
# http://rruff.geo.arizona.edu/AMS/amcsd.php
#
# The file may be used within the scientific community so long as
# proper attribution is given to the journal article from which the
# data were obtained.
#
data_9014611
loop_
_publ_author_name
'Antao, S. M.'
'Hassan, I.'
_publ_section_title
;
 Temperature dependence of the structural parameters
 in the transformation of aragonite to calcite,
 as determined from in situ synchrotron powder X-ray-diffraction data
 Note: T = 500 C
 Note: P = 101 kPa
;
_journal_name_full               'The Canadian Mineralogist'
_journal_page_first              1225
_journal_page_last               1236
_journal_paper_doi               10.3749/canmin.48.5.1225
_journal_volume                  48
_journal_year                    2010
_chemical_compound_source        'Cuenca, Spain'
_chemical_formula_sum            'C Ca O3'
_chemical_name_mineral           Calcite
_space_group_IT_number           167
_symmetry_space_group_name_Hall  '-R 3 2"c'
_symmetry_space_group_name_H-M   'R -3 c :H'
_cell_angle_alpha                90
_cell_angle_beta                 90
_cell_angle_gamma                120
_cell_length_a                   4.9775
_cell_length_b                   4.9775
_cell_length_c                   17.3105
_cell_formula_units_Z            6
_cell_volume                     371.418
_database_code_amcsd             0017859
_exptl_crystal_density_diffrn    2.685
_cod_original_sg_symbol_H-M      'R -3 c'
_cod_original_formula_sum        'Ca C O3'
_cod_database_code               9014611
loop_
_space_group_symop_operation_xyz
x,y,z
2/3+x,1/3+y,1/3+z
1/3+x,2/3+y,2/3+z
x,x-y,1/2+z
2/3+x,1/3+x-y,5/6+z
1/3+x,2/3+x-y,1/6+z
y,x,1/2-z
2/3+y,1/3+x,5/6-z
1/3+y,2/3+x,1/6-z
-x+y,y,1/2+z
2/3-x+y,1/3+y,5/6+z
1/3-x+y,2/3+y,1/6+z
-x,-x+y,1/2-z
2/3-x,1/3-x+y,5/6-z
1/3-x,2/3-x+y,1/6-z
-y,-x,1/2+z
2/3-y,1/3-x,5/6+z
1/3-y,2/3-x,1/6+z
x-y,-y,1/2-z
2/3+x-y,1/3-y,5/6-z
1/3+x-y,2/3-y,1/6-z
y,-x+y,-z
2/3+y,1/3-x+y,1/3-z
1/3+y,2/3-x+y,2/3-z
-x+y,-x,z
2/3-x+y,1/3-x,1/3+z
1/3-x+y,2/3-x,2/3+z
-x,-y,-z
2/3-x,1/3-y,1/3-z
1/3-x,2/3-y,2/3-z
-y,x-y,z
2/3-y,1/3+x-y,1/3+z
1/3-y,2/3+x-y,2/3+z
x-y,x,-z
2/3+x-y,1/3+x,1/3-z
1/3+x-y,2/3+x,2/3-z
loop_
_atom_site_label
_atom_site_fract_x
_atom_site_fract_y
_atom_site_fract_z
_atom_site_U_iso_or_equiv
Ca 0.00000 0.00000 0.00000 0.03100
C 0.00000 0.00000 0.25000 0.05180
O1 0.25230 0.00000 0.25000 0.05180
loop_
_cod_related_entry_id
_cod_related_entry_database
_cod_related_entry_code
1 AMCSD 0017859

#------------------------------------------------------------------------------
#$Date: 2024-05-23 10:45:01 +0100 (Thu, 23 May 2024) $
#$Revision: 292002 $
#$URL: svn://www.crystallography.net/cod/cif/9/01/47/9014701.cif $
#------------------------------------------------------------------------------
#
# This file is available in the Crystallography Open Database (COD),
# http://www.crystallography.net/. The original data for this entry
# were provided the American Mineralogist Crystal Structure Database,
# http://rruff.geo.arizona.edu/AMS/amcsd.php
#
# The file may be used within the scientific community so long as
# proper attribution is given to the journal article from which the
# data were obtained.
#
data_9014701
loop_
_publ_author_name
'Mugnaioli, E.'
'Andrusenko, I.'
'Schuler, T.'
'Loges, N.'
'Dinnebier, R. E.'
'Panthofer, M.'
'Tremel, W.'
'Kolb, U.'
_publ_section_title
;
 Ab-initio-Strukturbestimmung von Vaterit mit automatischer Beugungstomographie
;
_journal_name_full               'Angewandte Chemie'
_journal_page_first              1
_journal_page_last               6
_journal_paper_doi               10.1002/ange.201106864
_journal_volume                  124
_journal_year                    2012
_chemical_compound_source        Synthetic
_chemical_formula_sum            'C Ca O3'
_chemical_name_mineral           Vaterite
_space_group_IT_number           15
_symmetry_space_group_name_Hall  '-C 2yc'
_symmetry_space_group_name_H-M   'C 1 2/c 1'
_cell_angle_alpha                90
_cell_angle_beta                 118.37
_cell_angle_gamma                90
_cell_length_a                   12.170
_cell_length_b                   7.120
_cell_length_c                   9.470
_cell_formula_units_Z            12
_cell_volume                     722.026
_database_code_amcsd             0019138
_exptl_crystal_density_diffrn    2.762
_cod_original_formula_sum        'Ca C O3'
_cod_database_code               9014701
loop_
_space_group_symop_operation_xyz
x,y,z
1/2+x,1/2+y,z
x,-y,1/2+z
1/2+x,1/2-y,1/2+z
-x,y,1/2-z
1/2-x,1/2+y,1/2-z
-x,-y,-z
1/2-x,1/2-y,-z
loop_
_atom_site_label
_atom_site_fract_x
_atom_site_fract_y
_atom_site_fract_z
_atom_site_U_iso_or_equiv
Ca1 0.25000 0.25000 0.00000 0.05100
Ca2 0.07930 0.26310 0.50330 0.03600
C1 0.18370 0.39200 0.26200 0.04800
C2 0.00000 0.94700 0.25000 0.04600
O1 0.09200 0.43400 0.13200 0.09400
O2 0.20000 0.44300 0.39900 0.10100
O3 0.05700 0.85900 0.38310 0.10100
O4 0.27400 0.29200 0.26500 0.06900
O5 0.00000 0.12900 0.25000 0.07100
loop_
_cod_related_entry_id
_cod_related_entry_database
_cod_related_entry_code
1 AMCSD 0019138

#------------------------------------------------------------------------------
#$Date: 2024-05-23 10:45:01 +0100 (Thu, 23 May 2024) $
#$Revision: 292002 $
#$URL: svn://www.crystallography.net/cod/cif/9/01/47/9014744.cif $
#------------------------------------------------------------------------------
#
# This file is available in the Crystallography Open Database (COD),
# http://www.crystallography.net/. The original data for this entry
# were provided the American Mineralogist Crystal Structure Database,
# http://rruff.geo.arizona.edu/AMS/amcsd.php
#
# The file may be used within the scientific community so long as
# proper attribution is given to the journal article from which the
# data were obtained.
#
data_9014744
loop_
_publ_author_name
'Antao, S. M.'
'Hassan, I.'
_publ_section_title
;
 Temperature dependence of the structural parameters
 in the transformation of aragonite to calcite,
 as determined from in situ synchrotron powder X-ray-diffraction data
 Note: T = 519 C
 Note: P = 101 kPa
;
_journal_name_full               'The Canadian Mineralogist'
_journal_page_first              1225
_journal_page_last               1236
_journal_paper_doi               10.3749/canmin.48.5.1225
_journal_volume                  48
_journal_year                    2010
_chemical_compound_source        'Cuenca, Spain'
_chemical_formula_sum            'C Ca O3'
_chemical_name_mineral           Calcite
_space_group_IT_number           167
_symmetry_space_group_name_Hall  '-R 3 2"c'
_symmetry_space_group_name_H-M   'R -3 c :H'
_cell_angle_alpha                90
_cell_angle_beta                 90
_cell_angle_gamma                120
_cell_length_a                   4.9773
_cell_length_b                   4.9773
_cell_length_c                   17.3231
_cell_formula_units_Z            6
_cell_volume                     371.658
_database_code_amcsd             0017860
_exptl_crystal_density_diffrn    2.683
_cod_original_sg_symbol_H-M      'R -3 c'
_cod_original_formula_sum        'Ca C O3'
_cod_database_code               9014744
loop_
_space_group_symop_operation_xyz
x,y,z
2/3+x,1/3+y,1/3+z
1/3+x,2/3+y,2/3+z
x,x-y,1/2+z
2/3+x,1/3+x-y,5/6+z
1/3+x,2/3+x-y,1/6+z
y,x,1/2-z
2/3+y,1/3+x,5/6-z
1/3+y,2/3+x,1/6-z
-x+y,y,1/2+z
2/3-x+y,1/3+y,5/6+z
1/3-x+y,2/3+y,1/6+z
-x,-x+y,1/2-z
2/3-x,1/3-x+y,5/6-z
1/3-x,2/3-x+y,1/6-z
-y,-x,1/2+z
2/3-y,1/3-x,5/6+z
1/3-y,2/3-x,1/6+z
x-y,-y,1/2-z
2/3+x-y,1/3-y,5/6-z
1/3+x-y,2/3-y,1/6-z
y,-x+y,-z
2/3+y,1/3-x+y,1/3-z
1/3+y,2/3-x+y,2/3-z
-x+y,-x,z
2/3-x+y,1/3-x,1/3+z
1/3-x+y,2/3-x,2/3+z
-x,-y,-z
2/3-x,1/3-y,1/3-z
1/3-x,2/3-y,2/3-z
-y,x-y,z
2/3-y,1/3+x-y,1/3+z
1/3-y,2/3+x-y,2/3+z
x-y,x,-z
2/3+x-y,1/3+x,1/3-z
1/3+x-y,2/3+x,2/3-z
loop_
_atom_site_label
_atom_site_fract_x
_atom_site_fract_y
_atom_site_fract_z
_atom_site_U_iso_or_equiv
Ca 0.00000 0.00000 0.00000 0.03330
C 0.00000 0.00000 0.25000 0.05520
O1 0.25190 0.00000 0.25000 0.05520
loop_
_cod_related_entry_id
_cod_related_entry_database
_cod_related_entry_code
1 AMCSD 0017860

#------------------------------------------------------------------------------
#$Date: 2024-05-23 10:45:01 +0100 (Thu, 23 May 2024) $
#$Revision: 292002 $
#$URL: svn://www.crystallography.net/cod/cif/9/01/47/9014772.cif $
#------------------------------------------------------------------------------
#
# This file is available in the Crystallography Open Database (COD),
# http://www.crystallography.net/. The original data for this entry
# were provided the American Mineralogist Crystal Structure Database,
# http://rruff.geo.arizona.edu/AMS/amcsd.php
#
# The file may be used within the scientific community so long as
# proper attribution is given to the journal article from which the
# data were obtained.
#
data_9014772
loop_
_publ_author_name
'Antao, S. M.'
'Hassan, I.'
_publ_section_title
;
 Temperature dependence of the structural parameters
 in the transformation of aragonite to calcite,
 as determined from in situ synchrotron powder X-ray-diffraction data
 Note: T = 379 C
 Note: P = 101 kPa
;
_journal_name_full               'The Canadian Mineralogist'
_journal_page_first              1225
_journal_page_last               1236
_journal_paper_doi               10.3749/canmin.48.5.1225
_journal_volume                  48
_journal_year                    2010
_chemical_compound_source        'Cuenca, Spain'
_chemical_formula_sum            'C Ca O3'
_chemical_name_mineral           Calcite
_space_group_IT_number           167
_symmetry_space_group_name_Hall  '-R 3 2"c'
_symmetry_space_group_name_H-M   'R -3 c :H'
_cell_angle_alpha                90
_cell_angle_beta                 90
_cell_angle_gamma                120
_cell_length_a                   4.974
_cell_length_b                   4.974
_cell_length_c                   17.251
_cell_formula_units_Z            6
_cell_volume                     369.621
_database_code_amcsd             0017853
_exptl_crystal_density_diffrn    2.698
_cod_original_sg_symbol_H-M      'R -3 c'
_cod_original_formula_sum        'Ca C O3'
_cod_database_code               9014772
loop_
_space_group_symop_operation_xyz
x,y,z
2/3+x,1/3+y,1/3+z
1/3+x,2/3+y,2/3+z
x,x-y,1/2+z
2/3+x,1/3+x-y,5/6+z
1/3+x,2/3+x-y,1/6+z
y,x,1/2-z
2/3+y,1/3+x,5/6-z
1/3+y,2/3+x,1/6-z
-x+y,y,1/2+z
2/3-x+y,1/3+y,5/6+z
1/3-x+y,2/3+y,1/6+z
-x,-x+y,1/2-z
2/3-x,1/3-x+y,5/6-z
1/3-x,2/3-x+y,1/6-z
-y,-x,1/2+z
2/3-y,1/3-x,5/6+z
1/3-y,2/3-x,1/6+z
x-y,-y,1/2-z
2/3+x-y,1/3-y,5/6-z
1/3+x-y,2/3-y,1/6-z
y,-x+y,-z
2/3+y,1/3-x+y,1/3-z
1/3+y,2/3-x+y,2/3-z
-x+y,-x,z
2/3-x+y,1/3-x,1/3+z
1/3-x+y,2/3-x,2/3+z
-x,-y,-z
2/3-x,1/3-y,1/3-z
1/3-x,2/3-y,2/3-z
-y,x-y,z
2/3-y,1/3+x-y,1/3+z
1/3-y,2/3+x-y,2/3+z
x-y,x,-z
2/3+x-y,1/3+x,1/3-z
1/3+x-y,2/3+x,2/3-z
loop_
_atom_site_label
_atom_site_fract_x
_atom_site_fract_y
_atom_site_fract_z
_atom_site_U_iso_or_equiv
Ca 0.00000 0.00000 0.00000 0.01200
C 0.00000 0.00000 0.25000 0.05400
O1 0.26200 0.00000 0.25000 0.05400
loop_
_cod_related_entry_id
_cod_related_entry_database
_cod_related_entry_code
1 AMCSD 0017853

#------------------------------------------------------------------------------
#$Date: 2024-05-23 10:45:01 +0100 (Thu, 23 May 2024) $
#$Revision: 292002 $
#$URL: svn://www.crystallography.net/cod/cif/9/01/48/9014838.cif $
#------------------------------------------------------------------------------
#
# This file is available in the Crystallography Open Database (COD),
# http://www.crystallography.net/. The original data for this entry
# were provided the American Mineralogist Crystal Structure Database,
# http://rruff.geo.arizona.edu/AMS/amcsd.php
#
# The file may be used within the scientific community so long as
# proper attribution is given to the journal article from which the
# data were obtained.
#
data_9014838
loop_
_publ_author_name
'Antao, S. M.'
'Hassan, I.'
_publ_section_title
;
 Temperature dependence of the structural parameters
 in the transformation of aragonite to calcite,
 as determined from in situ synchrotron powder X-ray-diffraction data
 Note: T = 92 C
 Note: P = 101 kPa
;
_journal_name_full               'The Canadian Mineralogist'
_journal_page_first              1225
_journal_page_last               1236
_journal_paper_doi               10.3749/canmin.48.5.1225
_journal_volume                  48
_journal_year                    2010
_chemical_compound_source        'Cuenca, Spain'
_chemical_formula_sum            'C Ca O3'
_chemical_name_mineral           Aragonite
_space_group_IT_number           62
_symmetry_space_group_name_Hall  '-P 2n 2a'
_symmetry_space_group_name_H-M   'P m c n'
_cell_angle_alpha                90
_cell_angle_beta                 90
_cell_angle_gamma                90
_cell_length_a                   4.9586
_cell_length_b                   7.9867
_cell_length_c                   5.7547
_cell_formula_units_Z            4
_cell_volume                     227.903
_database_code_amcsd             0017829
_exptl_crystal_density_diffrn    2.917
_cod_original_formula_sum        'Ca C O3'
_cod_database_code               9014838
loop_
_space_group_symop_operation_xyz
x,y,z
1/2-x,y,z
1/2+x,-y,-z
1/2+x,1/2+y,1/2-z
1/2-x,1/2-y,1/2+z
x,1/2-y,1/2+z
-x,1/2+y,1/2-z
-x,-y,-z
loop_
_atom_site_label
_atom_site_fract_x
_atom_site_fract_y
_atom_site_fract_z
_atom_site_U_iso_or_equiv
Ca 0.25000 0.41410 0.75380 0.00900
C 0.25000 0.76580 -0.06790 0.02600
O1 0.25000 0.91830 -0.08890 0.02600
O2 0.47350 0.68400 -0.09830 0.02600
loop_
_cod_related_entry_id
_cod_related_entry_database
_cod_related_entry_code
1 AMCSD 0017829

#------------------------------------------------------------------------------
#$Date: 2024-05-23 10:45:01 +0100 (Thu, 23 May 2024) $
#$Revision: 292002 $
#$URL: svn://www.crystallography.net/cod/cif/9/01/48/9014877.cif $
#------------------------------------------------------------------------------
#
# This file is available in the Crystallography Open Database (COD),
# http://www.crystallography.net/. The original data for this entry
# were provided the American Mineralogist Crystal Structure Database,
# http://rruff.geo.arizona.edu/AMS/amcsd.php
#
# The file may be used within the scientific community so long as
# proper attribution is given to the journal article from which the
# data were obtained.
#
data_9014877
loop_
_publ_author_name
'Antao, S. M.'
'Hassan, I.'
_publ_section_title
;
 Temperature dependence of the structural parameters
 in the transformation of aragonite to calcite,
 as determined from in situ synchrotron powder X-ray-diffraction data
 Note: T = 359 C
 Note: P = 101 kPa
;
_journal_name_full               'The Canadian Mineralogist'
_journal_page_first              1225
_journal_page_last               1236
_journal_paper_doi               10.3749/canmin.48.5.1225
_journal_volume                  48
_journal_year                    2010
_chemical_compound_source        'Cuenca, Spain'
_chemical_formula_sum            'C Ca O3'
_chemical_name_mineral           Calcite
_space_group_IT_number           167
_symmetry_space_group_name_Hall  '-R 3 2"c'
_symmetry_space_group_name_H-M   'R -3 c :H'
_cell_angle_alpha                90
_cell_angle_beta                 90
_cell_angle_gamma                120
_cell_length_a                   4.974
_cell_length_b                   4.974
_cell_length_c                   17.243
_cell_formula_units_Z            6
_cell_volume                     369.449
_database_code_amcsd             0017852
_exptl_crystal_density_diffrn    2.699
_cod_original_sg_symbol_H-M      'R -3 c'
_cod_original_formula_sum        'Ca C O3'
_cod_database_code               9014877
loop_
_space_group_symop_operation_xyz
x,y,z
2/3+x,1/3+y,1/3+z
1/3+x,2/3+y,2/3+z
x,x-y,1/2+z
2/3+x,1/3+x-y,5/6+z
1/3+x,2/3+x-y,1/6+z
y,x,1/2-z
2/3+y,1/3+x,5/6-z
1/3+y,2/3+x,1/6-z
-x+y,y,1/2+z
2/3-x+y,1/3+y,5/6+z
1/3-x+y,2/3+y,1/6+z
-x,-x+y,1/2-z
2/3-x,1/3-x+y,5/6-z
1/3-x,2/3-x+y,1/6-z
-y,-x,1/2+z
2/3-y,1/3-x,5/6+z
1/3-y,2/3-x,1/6+z
x-y,-y,1/2-z
2/3+x-y,1/3-y,5/6-z
1/3+x-y,2/3-y,1/6-z
y,-x+y,-z
2/3+y,1/3-x+y,1/3-z
1/3+y,2/3-x+y,2/3-z
-x+y,-x,z
2/3-x+y,1/3-x,1/3+z
1/3-x+y,2/3-x,2/3+z
-x,-y,-z
2/3-x,1/3-y,1/3-z
1/3-x,2/3-y,2/3-z
-y,x-y,z
2/3-y,1/3+x-y,1/3+z
1/3-y,2/3+x-y,2/3+z
x-y,x,-z
2/3+x-y,1/3+x,1/3-z
1/3+x-y,2/3+x,2/3-z
loop_
_atom_site_label
_atom_site_fract_x
_atom_site_fract_y
_atom_site_fract_z
_atom_site_U_iso_or_equiv
Ca 0.00000 0.00000 0.00000 0.01000
C 0.00000 0.00000 0.25000 0.05500
O1 0.26300 0.00000 0.25000 0.05500
loop_
_cod_related_entry_id
_cod_related_entry_database
_cod_related_entry_code
1 AMCSD 0017852

#------------------------------------------------------------------------------
#$Date: 2024-05-23 10:45:01 +0100 (Thu, 23 May 2024) $
#$Revision: 292002 $
#$URL: svn://www.crystallography.net/cod/cif/9/01/48/9014891.cif $
#------------------------------------------------------------------------------
#
# This file is available in the Crystallography Open Database (COD),
# http://www.crystallography.net/. The original data for this entry
# were provided the American Mineralogist Crystal Structure Database,
# http://rruff.geo.arizona.edu/AMS/amcsd.php
#
# The file may be used within the scientific community so long as
# proper attribution is given to the journal article from which the
# data were obtained.
#
data_9014891
loop_
_publ_author_name
'Antao, S. M.'
'Hassan, I.'
_publ_section_title
;
 Temperature dependence of the structural parameters
 in the transformation of aragonite to calcite,
 as determined from in situ synchrotron powder X-ray-diffraction data
 Note: T = 318 C
 Note: P = 101 kPa
;
_journal_name_full               'The Canadian Mineralogist'
_journal_page_first              1225
_journal_page_last               1236
_journal_paper_doi               10.3749/canmin.48.5.1225
_journal_volume                  48
_journal_year                    2010
_chemical_compound_source        'Cuenca, Spain'
_chemical_formula_sum            'C Ca O3'
_chemical_name_mineral           Calcite
_space_group_IT_number           167
_symmetry_space_group_name_Hall  '-R 3 2"c'
_symmetry_space_group_name_H-M   'R -3 c :H'
_cell_angle_alpha                90
_cell_angle_beta                 90
_cell_angle_gamma                120
_cell_length_a                   4.978
_cell_length_b                   4.978
_cell_length_c                   17.211
_cell_formula_units_Z            6
_cell_volume                     369.357
_database_code_amcsd             0017850
_exptl_crystal_density_diffrn    2.700
_cod_original_sg_symbol_H-M      'R -3 c'
_cod_original_formula_sum        'Ca C O3'
_cod_database_code               9014891
loop_
_space_group_symop_operation_xyz
x,y,z
2/3+x,1/3+y,1/3+z
1/3+x,2/3+y,2/3+z
x,x-y,1/2+z
2/3+x,1/3+x-y,5/6+z
1/3+x,2/3+x-y,1/6+z
y,x,1/2-z
2/3+y,1/3+x,5/6-z
1/3+y,2/3+x,1/6-z
-x+y,y,1/2+z
2/3-x+y,1/3+y,5/6+z
1/3-x+y,2/3+y,1/6+z
-x,-x+y,1/2-z
2/3-x,1/3-x+y,5/6-z
1/3-x,2/3-x+y,1/6-z
-y,-x,1/2+z
2/3-y,1/3-x,5/6+z
1/3-y,2/3-x,1/6+z
x-y,-y,1/2-z
2/3+x-y,1/3-y,5/6-z
1/3+x-y,2/3-y,1/6-z
y,-x+y,-z
2/3+y,1/3-x+y,1/3-z
1/3+y,2/3-x+y,2/3-z
-x+y,-x,z
2/3-x+y,1/3-x,1/3+z
1/3-x+y,2/3-x,2/3+z
-x,-y,-z
2/3-x,1/3-y,1/3-z
1/3-x,2/3-y,2/3-z
-y,x-y,z
2/3-y,1/3+x-y,1/3+z
1/3-y,2/3+x-y,2/3+z
x-y,x,-z
2/3+x-y,1/3+x,1/3-z
1/3+x-y,2/3+x,2/3-z
loop_
_atom_site_label
_atom_site_fract_x
_atom_site_fract_y
_atom_site_fract_z
_atom_site_U_iso_or_equiv
Ca 0.00000 0.00000 0.00000 0.00600
C 0.00000 0.00000 0.25000 0.06200
O1 0.26200 0.00000 0.25000 0.06200
loop_
_cod_related_entry_id
_cod_related_entry_database
_cod_related_entry_code
1 AMCSD 0017850

#------------------------------------------------------------------------------
#$Date: 2024-05-23 10:45:01 +0100 (Thu, 23 May 2024) $
#$Revision: 292002 $
#$URL: svn://www.crystallography.net/cod/cif/9/01/49/9014935.cif $
#------------------------------------------------------------------------------
#
# This file is available in the Crystallography Open Database (COD),
# http://www.crystallography.net/. The original data for this entry
# were provided the American Mineralogist Crystal Structure Database,
# http://rruff.geo.arizona.edu/AMS/amcsd.php
#
# The file may be used within the scientific community so long as
# proper attribution is given to the journal article from which the
# data were obtained.
#
data_9014935
loop_
_publ_author_name
'Antao, S. M.'
'Hassan, I.'
_publ_section_title
;
 Temperature dependence of the structural parameters
 in the transformation of aragonite to calcite,
 as determined from in situ synchrotron powder X-ray-diffraction data
 Note: T = 359 C
 Note: P = 101 kPa
;
_journal_name_full               'The Canadian Mineralogist'
_journal_page_first              1225
_journal_page_last               1236
_journal_paper_doi               10.3749/canmin.48.5.1225
_journal_volume                  48
_journal_year                    2010
_chemical_compound_source        'Cuenca, Spain'
_chemical_formula_sum            'C Ca O3'
_chemical_name_mineral           Aragonite
_space_group_IT_number           62
_symmetry_space_group_name_Hall  '-P 2n 2a'
_symmetry_space_group_name_H-M   'P m c n'
_cell_angle_alpha                90
_cell_angle_beta                 90
_cell_angle_gamma                90
_cell_length_a                   4.9713
_cell_length_b                   8.0311
_cell_length_c                   5.8141
_cell_formula_units_Z            4
_cell_volume                     232.128
_database_code_amcsd             0017842
_exptl_crystal_density_diffrn    2.864
_cod_original_formula_sum        'Ca C O3'
_cod_database_code               9014935
loop_
_space_group_symop_operation_xyz
x,y,z
1/2-x,y,z
1/2+x,-y,-z
1/2+x,1/2+y,1/2-z
1/2-x,1/2-y,1/2+z
x,1/2-y,1/2+z
-x,1/2+y,1/2-z
-x,-y,-z
loop_
_atom_site_label
_atom_site_fract_x
_atom_site_fract_y
_atom_site_fract_z
_atom_site_U_iso_or_equiv
Ca 0.25000 0.41320 0.75590 0.01800
C 0.25000 0.76180 -0.06150 0.03700
O1 0.25000 0.91970 -0.08470 0.03700
O2 0.47150 0.68630 -0.09760 0.03700
loop_
_cod_related_entry_id
_cod_related_entry_database
_cod_related_entry_code
1 AMCSD 0017842

#------------------------------------------------------------------------------
#$Date: 2024-05-23 10:45:01 +0100 (Thu, 23 May 2024) $
#$Revision: 292002 $
#$URL: svn://www.crystallography.net/cod/cif/9/01/49/9014943.cif $
#------------------------------------------------------------------------------
#
# This file is available in the Crystallography Open Database (COD),
# http://www.crystallography.net/. The original data for this entry
# were provided the American Mineralogist Crystal Structure Database,
# http://rruff.geo.arizona.edu/AMS/amcsd.php
#
# The file may be used within the scientific community so long as
# proper attribution is given to the journal article from which the
# data were obtained.
#
data_9014943
loop_
_publ_author_name
'Antao, S. M.'
'Hassan, I.'
_publ_section_title
;
 Temperature dependence of the structural parameters
 in the transformation of aragonite to calcite,
 as determined from in situ synchrotron powder X-ray-diffraction data
 Note: T = 154 C
 Note: P = 101 kPa
;
_journal_name_full               'The Canadian Mineralogist'
_journal_page_first              1225
_journal_page_last               1236
_journal_paper_doi               10.3749/canmin.48.5.1225
_journal_volume                  48
_journal_year                    2010
_chemical_compound_source        'Cuenca, Spain'
_chemical_formula_sum            'C Ca O3'
_chemical_name_mineral           Aragonite
_space_group_IT_number           62
_symmetry_space_group_name_Hall  '-P 2n 2a'
_symmetry_space_group_name_H-M   'P m c n'
_cell_angle_alpha                90
_cell_angle_beta                 90
_cell_angle_gamma                90
_cell_length_a                   4.9614
_cell_length_b                   7.9954
_cell_length_c                   5.7668
_cell_formula_units_Z            4
_cell_volume                     228.760
_database_code_amcsd             0017832
_exptl_crystal_density_diffrn    2.906
_cod_original_formula_sum        'Ca C O3'
_cod_database_code               9014943
loop_
_space_group_symop_operation_xyz
x,y,z
1/2-x,y,z
1/2+x,-y,-z
1/2+x,1/2+y,1/2-z
1/2-x,1/2-y,1/2+z
x,1/2-y,1/2+z
-x,1/2+y,1/2-z
-x,-y,-z
loop_
_atom_site_label
_atom_site_fract_x
_atom_site_fract_y
_atom_site_fract_z
_atom_site_U_iso_or_equiv
Ca 0.25000 0.41390 0.75390 0.01100
C 0.25000 0.76550 -0.06710 0.03000
O1 0.25000 0.91840 -0.08790 0.03000
O2 0.47310 0.68440 -0.09810 0.03000
loop_
_cod_related_entry_id
_cod_related_entry_database
_cod_related_entry_code
1 AMCSD 0017832

#------------------------------------------------------------------------------
#$Date: 2024-05-23 10:45:01 +0100 (Thu, 23 May 2024) $
#$Revision: 292002 $
#$URL: svn://www.crystallography.net/cod/cif/9/01/50/9015066.cif $
#------------------------------------------------------------------------------
#
# This file is available in the Crystallography Open Database (COD),
# http://www.crystallography.net/. The original data for this entry
# were provided the American Mineralogist Crystal Structure Database,
# http://rruff.geo.arizona.edu/AMS/amcsd.php
#
# The file may be used within the scientific community so long as
# proper attribution is given to the journal article from which the
# data were obtained.
#
data_9015066
loop_
_publ_author_name
'Antao, S. M.'
'Hassan, I.'
_publ_section_title
;
 Temperature dependence of the structural parameters
 in the transformation of aragonite to calcite,
 as determined from in situ synchrotron powder X-ray-diffraction data
 Note: T = 556 C
 Note: P = 101 kPa
;
_journal_name_full               'The Canadian Mineralogist'
_journal_page_first              1225
_journal_page_last               1236
_journal_paper_doi               10.3749/canmin.48.5.1225
_journal_volume                  48
_journal_year                    2010
_chemical_compound_source        'Cuenca, Spain'
_chemical_formula_sum            'C Ca O3'
_chemical_name_mineral           Calcite
_space_group_IT_number           167
_symmetry_space_group_name_Hall  '-R 3 2"c'
_symmetry_space_group_name_H-M   'R -3 c :H'
_cell_angle_alpha                90
_cell_angle_beta                 90
_cell_angle_gamma                120
_cell_length_a                   4.9769
_cell_length_b                   4.9769
_cell_length_c                   17.3479
_cell_formula_units_Z            6
_cell_volume                     372.131
_database_code_amcsd             0017862
_exptl_crystal_density_diffrn    2.680
_cod_original_sg_symbol_H-M      'R -3 c'
_cod_original_formula_sum        'Ca C O3'
_cod_database_code               9015066
loop_
_space_group_symop_operation_xyz
x,y,z
2/3+x,1/3+y,1/3+z
1/3+x,2/3+y,2/3+z
x,x-y,1/2+z
2/3+x,1/3+x-y,5/6+z
1/3+x,2/3+x-y,1/6+z
y,x,1/2-z
2/3+y,1/3+x,5/6-z
1/3+y,2/3+x,1/6-z
-x+y,y,1/2+z
2/3-x+y,1/3+y,5/6+z
1/3-x+y,2/3+y,1/6+z
-x,-x+y,1/2-z
2/3-x,1/3-x+y,5/6-z
1/3-x,2/3-x+y,1/6-z
-y,-x,1/2+z
2/3-y,1/3-x,5/6+z
1/3-y,2/3-x,1/6+z
x-y,-y,1/2-z
2/3+x-y,1/3-y,5/6-z
1/3+x-y,2/3-y,1/6-z
y,-x+y,-z
2/3+y,1/3-x+y,1/3-z
1/3+y,2/3-x+y,2/3-z
-x+y,-x,z
2/3-x+y,1/3-x,1/3+z
1/3-x+y,2/3-x,2/3+z
-x,-y,-z
2/3-x,1/3-y,1/3-z
1/3-x,2/3-y,2/3-z
-y,x-y,z
2/3-y,1/3+x-y,1/3+z
1/3-y,2/3+x-y,2/3+z
x-y,x,-z
2/3+x-y,1/3+x,1/3-z
1/3+x-y,2/3+x,2/3-z
loop_
_atom_site_label
_atom_site_fract_x
_atom_site_fract_y
_atom_site_fract_z
_atom_site_U_iso_or_equiv
Ca 0.00000 0.00000 0.00000 0.03590
C 0.00000 0.00000 0.25000 0.05980
O1 0.25150 0.00000 0.25000 0.05980
loop_
_cod_related_entry_id
_cod_related_entry_database
_cod_related_entry_code
1 AMCSD 0017862

#------------------------------------------------------------------------------
#$Date: 2024-05-23 10:45:01 +0100 (Thu, 23 May 2024) $
#$Revision: 292002 $
#$URL: svn://www.crystallography.net/cod/cif/9/01/50/9015073.cif $
#------------------------------------------------------------------------------
#
# This file is available in the Crystallography Open Database (COD),
# http://www.crystallography.net/. The original data for this entry
# were provided the American Mineralogist Crystal Structure Database,
# http://rruff.geo.arizona.edu/AMS/amcsd.php
#
# The file may be used within the scientific community so long as
# proper attribution is given to the journal article from which the
# data were obtained.
#
data_9015073
loop_
_publ_author_name
'Antao, S. M.'
'Hassan, I.'
_publ_section_title
;
 Temperature dependence of the structural parameters
 in the transformation of aragonite to calcite,
 as determined from in situ synchrotron powder X-ray-diffraction data
 Note: T = 681 C
 Note: P = 101 kPa
;
_journal_name_full               'The Canadian Mineralogist'
_journal_page_first              1225
_journal_page_last               1236
_journal_paper_doi               10.3749/canmin.48.5.1225
_journal_volume                  48
_journal_year                    2010
_chemical_compound_source        'Cuenca, Spain'
_chemical_formula_sum            'C Ca O3'
_chemical_name_mineral           Calcite
_space_group_IT_number           167
_symmetry_space_group_name_Hall  '-R 3 2"c'
_symmetry_space_group_name_H-M   'R -3 c :H'
_cell_angle_alpha                90
_cell_angle_beta                 90
_cell_angle_gamma                120
_cell_length_a                   4.9759
_cell_length_b                   4.9759
_cell_length_c                   17.4486
_cell_formula_units_Z            6
_cell_volume                     374.140
_database_code_amcsd             0017868
_exptl_crystal_density_diffrn    2.665
_cod_original_sg_symbol_H-M      'R -3 c'
_cod_original_formula_sum        'Ca C O3'
_cod_database_code               9015073
loop_
_space_group_symop_operation_xyz
x,y,z
2/3+x,1/3+y,1/3+z
1/3+x,2/3+y,2/3+z
x,x-y,1/2+z
2/3+x,1/3+x-y,5/6+z
1/3+x,2/3+x-y,1/6+z
y,x,1/2-z
2/3+y,1/3+x,5/6-z
1/3+y,2/3+x,1/6-z
-x+y,y,1/2+z
2/3-x+y,1/3+y,5/6+z
1/3-x+y,2/3+y,1/6+z
-x,-x+y,1/2-z
2/3-x,1/3-x+y,5/6-z
1/3-x,2/3-x+y,1/6-z
-y,-x,1/2+z
2/3-y,1/3-x,5/6+z
1/3-y,2/3-x,1/6+z
x-y,-y,1/2-z
2/3+x-y,1/3-y,5/6-z
1/3+x-y,2/3-y,1/6-z
y,-x+y,-z
2/3+y,1/3-x+y,1/3-z
1/3+y,2/3-x+y,2/3-z
-x+y,-x,z
2/3-x+y,1/3-x,1/3+z
1/3-x+y,2/3-x,2/3+z
-x,-y,-z
2/3-x,1/3-y,1/3-z
1/3-x,2/3-y,2/3-z
-y,x-y,z
2/3-y,1/3+x-y,1/3+z
1/3-y,2/3+x-y,2/3+z
x-y,x,-z
2/3+x-y,1/3+x,1/3-z
1/3+x-y,2/3+x,2/3-z
loop_
_atom_site_label
_atom_site_fract_x
_atom_site_fract_y
_atom_site_fract_z
_atom_site_U_iso_or_equiv
Ca 0.00000 0.00000 0.00000 0.04190
C 0.00000 0.00000 0.25000 0.07400
O1 0.24920 0.00000 0.25000 0.07400
loop_
_cod_related_entry_id
_cod_related_entry_database
_cod_related_entry_code
1 AMCSD 0017868

#------------------------------------------------------------------------------
#$Date: 2024-05-23 10:45:01 +0100 (Thu, 23 May 2024) $
#$Revision: 292002 $
#$URL: svn://www.crystallography.net/cod/cif/9/01/51/9015149.cif $
#------------------------------------------------------------------------------
#
# This file is available in the Crystallography Open Database (COD),
# http://www.crystallography.net/. The original data for this entry
# were provided the American Mineralogist Crystal Structure Database,
# http://rruff.geo.arizona.edu/AMS/amcsd.php
#
# The file may be used within the scientific community so long as
# proper attribution is given to the journal article from which the
# data were obtained.
#
data_9015149
loop_
_publ_author_name
'Antao, S. M.'
'Hassan, I.'
_publ_section_title
;
 Temperature dependence of the structural parameters
 in the transformation of aragonite to calcite,
 as determined from in situ synchrotron powder X-ray-diffraction data
 Note: T = 337 C
 Note: P = 101 kPa
;
_journal_name_full               'The Canadian Mineralogist'
_journal_page_first              1225
_journal_page_last               1236
_journal_paper_doi               10.3749/canmin.48.5.1225
_journal_volume                  48
_journal_year                    2010
_chemical_compound_source        'Cuenca, Spain'
_chemical_formula_sum            'C Ca O3'
_chemical_name_mineral           Aragonite
_space_group_IT_number           62
_symmetry_space_group_name_Hall  '-P 2n 2a'
_symmetry_space_group_name_H-M   'P m c n'
_cell_angle_alpha                90
_cell_angle_beta                 90
_cell_angle_gamma                90
_cell_length_a                   4.9703
_cell_length_b                   8.0272
_cell_length_c                   5.8087
_cell_formula_units_Z            4
_cell_volume                     231.753
_database_code_amcsd             0017841
_exptl_crystal_density_diffrn    2.869
_cod_original_formula_sum        'Ca C O3'
_cod_database_code               9015149
loop_
_space_group_symop_operation_xyz
x,y,z
1/2-x,y,z
1/2+x,-y,-z
1/2+x,1/2+y,1/2-z
1/2-x,1/2-y,1/2+z
x,1/2-y,1/2+z
-x,1/2+y,1/2-z
-x,-y,-z
loop_
_atom_site_label
_atom_site_fract_x
_atom_site_fract_y
_atom_site_fract_z
_atom_site_U_iso_or_equiv
Ca 0.25000 0.41320 0.75550 0.01800
C 0.25000 0.76220 -0.06340 0.03800
O1 0.25000 0.91940 -0.08460 0.03800
O2 0.47180 0.68600 -0.09750 0.03800
loop_
_cod_related_entry_id
_cod_related_entry_database
_cod_related_entry_code
1 AMCSD 0017841

#------------------------------------------------------------------------------
#$Date: 2024-05-23 10:45:01 +0100 (Thu, 23 May 2024) $
#$Revision: 292002 $
#$URL: svn://www.crystallography.net/cod/cif/9/01/51/9015152.cif $
#------------------------------------------------------------------------------
#
# This file is available in the Crystallography Open Database (COD),
# http://www.crystallography.net/. The original data for this entry
# were provided the American Mineralogist Crystal Structure Database,
# http://rruff.geo.arizona.edu/AMS/amcsd.php
#
# The file may be used within the scientific community so long as
# proper attribution is given to the journal article from which the
# data were obtained.
#
data_9015152
loop_
_publ_author_name
'Antao, S. M.'
'Hassan, I.'
_publ_section_title
;
 Temperature dependence of the structural parameters
 in the transformation of aragonite to calcite,
 as determined from in situ synchrotron powder X-ray-diffraction data
 Note: T = 275 C
 Note: P = 101 kPa
;
_journal_name_full               'The Canadian Mineralogist'
_journal_page_first              1225
_journal_page_last               1236
_journal_paper_doi               10.3749/canmin.48.5.1225
_journal_volume                  48
_journal_year                    2010
_chemical_compound_source        'Cuenca, Spain'
_chemical_formula_sum            'C Ca O3'
_chemical_name_mineral           Aragonite
_space_group_IT_number           62
_symmetry_space_group_name_Hall  '-P 2n 2a'
_symmetry_space_group_name_H-M   'P m c n'
_cell_angle_alpha                90
_cell_angle_beta                 90
_cell_angle_gamma                90
_cell_length_a                   4.9672
_cell_length_b                   8.0157
_cell_length_c                   5.7938
_cell_formula_units_Z            4
_cell_volume                     230.684
_database_code_amcsd             0017838
_exptl_crystal_density_diffrn    2.882
_cod_original_formula_sum        'Ca C O3'
_cod_database_code               9015152
loop_
_space_group_symop_operation_xyz
x,y,z
1/2-x,y,z
1/2+x,-y,-z
1/2+x,1/2+y,1/2-z
1/2-x,1/2-y,1/2+z
x,1/2-y,1/2+z
-x,1/2+y,1/2-z
-x,-y,-z
loop_
_atom_site_label
_atom_site_fract_x
_atom_site_fract_y
_atom_site_fract_z
_atom_site_U_iso_or_equiv
Ca 0.25000 0.41340 0.75470 0.01500
C 0.25000 0.76310 -0.06410 0.03600
O1 0.25000 0.91930 -0.08650 0.03600
O2 0.47260 0.68530 -0.09810 0.03600
loop_
_cod_related_entry_id
_cod_related_entry_database
_cod_related_entry_code
1 AMCSD 0017838

#------------------------------------------------------------------------------
#$Date: 2024-05-23 10:45:01 +0100 (Thu, 23 May 2024) $
#$Revision: 292002 $
#$URL: svn://www.crystallography.net/cod/cif/9/01/53/9015390.cif $
#------------------------------------------------------------------------------
#
# This file is available in the Crystallography Open Database (COD),
# http://www.crystallography.net/. The original data for this entry
# were provided the American Mineralogist Crystal Structure Database,
# http://rruff.geo.arizona.edu/AMS/amcsd.php
#
# The file may be used within the scientific community so long as
# proper attribution is given to the journal article from which the
# data were obtained.
#
data_9015390
loop_
_publ_author_name
'Sitepu, H.'
_publ_section_title
;
 Texture and structural refinement using neutron diffraction data from
 molybdite (MoO3) and calcite (CaCO3) powders and a Ni-rich Ni50.7Ti49.30 alloy
 Note: March model
;
_journal_name_full               'Powder Diffraction'
_journal_page_first              315
_journal_page_last               326
_journal_paper_doi               10.1154/1.3257906
_journal_volume                  24
_journal_year                    2009
_chemical_compound_source        Synthetic
_chemical_formula_sum            'C Ca O3'
_chemical_name_mineral           Calcite
_space_group_IT_number           167
_symmetry_space_group_name_Hall  '-R 3 2"c'
_symmetry_space_group_name_H-M   'R -3 c :H'
_cell_angle_alpha                90
_cell_angle_beta                 90
_cell_angle_gamma                120
_cell_length_a                   4.99029
_cell_length_b                   4.99029
_cell_length_c                   17.0687
_cell_formula_units_Z            6
_cell_volume                     368.114
_database_code_amcsd             0018896
_exptl_crystal_density_diffrn    2.709
_cod_original_sg_symbol_H-M      'R -3 c'
_cod_original_formula_sum        'Ca C O3'
_cod_database_code               9015390
loop_
_space_group_symop_operation_xyz
x,y,z
2/3+x,1/3+y,1/3+z
1/3+x,2/3+y,2/3+z
x,x-y,1/2+z
2/3+x,1/3+x-y,5/6+z
1/3+x,2/3+x-y,1/6+z
y,x,1/2-z
2/3+y,1/3+x,5/6-z
1/3+y,2/3+x,1/6-z
-x+y,y,1/2+z
2/3-x+y,1/3+y,5/6+z
1/3-x+y,2/3+y,1/6+z
-x,-x+y,1/2-z
2/3-x,1/3-x+y,5/6-z
1/3-x,2/3-x+y,1/6-z
-y,-x,1/2+z
2/3-y,1/3-x,5/6+z
1/3-y,2/3-x,1/6+z
x-y,-y,1/2-z
2/3+x-y,1/3-y,5/6-z
1/3+x-y,2/3-y,1/6-z
y,-x+y,-z
2/3+y,1/3-x+y,1/3-z
1/3+y,2/3-x+y,2/3-z
-x+y,-x,z
2/3-x+y,1/3-x,1/3+z
1/3-x+y,2/3-x,2/3+z
-x,-y,-z
2/3-x,1/3-y,1/3-z
1/3-x,2/3-y,2/3-z
-y,x-y,z
2/3-y,1/3+x-y,1/3+z
1/3-y,2/3+x-y,2/3+z
x-y,x,-z
2/3+x-y,1/3+x,1/3-z
1/3+x-y,2/3+x,2/3-z
loop_
_atom_site_aniso_label
_atom_site_aniso_U_11
_atom_site_aniso_U_22
_atom_site_aniso_U_33
_atom_site_aniso_U_12
_atom_site_aniso_U_13
_atom_site_aniso_U_23
Ca 0.01740 0.01740 0.02100 0.00870 0.00000 0.00000
C 0.01320 0.01320 0.01750 0.00660 0.00000 0.00000
O 0.01720 0.02250 0.02730 0.01125 -0.00342 -0.00684
loop_
_atom_site_label
_atom_site_fract_x
_atom_site_fract_y
_atom_site_fract_z
Ca 0.00000 0.00000 0.00000
C 0.00000 0.00000 0.25000
O 0.25667 0.00000 0.25000
loop_
_cod_related_entry_id
_cod_related_entry_database
_cod_related_entry_code
1 AMCSD 0018896

#------------------------------------------------------------------------------
#$Date: 2024-05-23 10:45:01 +0100 (Thu, 23 May 2024) $
#$Revision: 292002 $
#$URL: svn://www.crystallography.net/cod/cif/9/01/54/9015448.cif $
#------------------------------------------------------------------------------
#
# This file is available in the Crystallography Open Database (COD),
# http://www.crystallography.net/. The original data for this entry
# were provided the American Mineralogist Crystal Structure Database,
# http://rruff.geo.arizona.edu/AMS/amcsd.php
#
# The file may be used within the scientific community so long as
# proper attribution is given to the journal article from which the
# data were obtained.
#
data_9015448
loop_
_publ_author_name
'Antao, S. M.'
'Hassan, I.'
_publ_section_title
;
 Temperature dependence of the structural parameters
 in the transformation of aragonite to calcite,
 as determined from in situ synchrotron powder X-ray-diffraction data
 Note: T = 197 C
 Note: P = 101 kPa
;
_journal_name_full               'The Canadian Mineralogist'
_journal_page_first              1225
_journal_page_last               1236
_journal_paper_doi               10.3749/canmin.48.5.1225
_journal_volume                  48
_journal_year                    2010
_chemical_compound_source        'Cuenca, Spain'
_chemical_formula_sum            'C Ca O3'
_chemical_name_mineral           Aragonite
_space_group_IT_number           62
_symmetry_space_group_name_Hall  '-P 2n 2a'
_symmetry_space_group_name_H-M   'P m c n'
_cell_angle_alpha                90
_cell_angle_beta                 90
_cell_angle_gamma                90
_cell_length_a                   4.9635
_cell_length_b                   8.0024
_cell_length_c                   5.7760
_cell_formula_units_Z            4
_cell_volume                     229.422
_database_code_amcsd             0017834
_exptl_crystal_density_diffrn    2.898
_cod_original_formula_sum        'Ca C O3'
_cod_database_code               9015448
loop_
_space_group_symop_operation_xyz
x,y,z
1/2-x,y,z
1/2+x,-y,-z
1/2+x,1/2+y,1/2-z
1/2-x,1/2-y,1/2+z
x,1/2-y,1/2+z
-x,1/2+y,1/2-z
-x,-y,-z
loop_
_atom_site_label
_atom_site_fract_x
_atom_site_fract_y
_atom_site_fract_z
_atom_site_U_iso_or_equiv
Ca 0.25000 0.41370 0.75380 0.01300
C 0.25000 0.76470 -0.06600 0.03300
O1 0.25000 0.91840 -0.08760 0.03300
O2 0.47340 0.68440 -0.09820 0.03300
loop_
_cod_related_entry_id
_cod_related_entry_database
_cod_related_entry_code
1 AMCSD 0017834

#------------------------------------------------------------------------------
#$Date: 2024-05-23 10:45:01 +0100 (Thu, 23 May 2024) $
#$Revision: 292002 $
#$URL: svn://www.crystallography.net/cod/cif/9/01/54/9015460.cif $
#------------------------------------------------------------------------------
#
# This file is available in the Crystallography Open Database (COD),
# http://www.crystallography.net/. The original data for this entry
# were provided the American Mineralogist Crystal Structure Database,
# http://rruff.geo.arizona.edu/AMS/amcsd.php
#
# The file may be used within the scientific community so long as
# proper attribution is given to the journal article from which the
# data were obtained.
#
data_9015460
loop_
_publ_author_name
'Antao, S. M.'
'Hassan, I.'
_publ_section_title
;
 Temperature dependence of the structural parameters
 in the transformation of aragonite to calcite,
 as determined from in situ synchrotron powder X-ray-diffraction data
 Note: T = 702 C
 Note: P = 101 kPa
;
_journal_name_full               'The Canadian Mineralogist'
_journal_page_first              1225
_journal_page_last               1236
_journal_paper_doi               10.3749/canmin.48.5.1225
_journal_volume                  48
_journal_year                    2010
_chemical_compound_source        'Cuenca, Spain'
_chemical_formula_sum            'C Ca O3'
_chemical_name_mineral           Calcite
_space_group_IT_number           167
_symmetry_space_group_name_Hall  '-R 3 2"c'
_symmetry_space_group_name_H-M   'R -3 c :H'
_cell_angle_alpha                90
_cell_angle_beta                 90
_cell_angle_gamma                120
_cell_length_a                   4.9742
_cell_length_b                   4.9742
_cell_length_c                   17.4676
_cell_formula_units_Z            6
_cell_volume                     374.292
_database_code_amcsd             0017869
_exptl_crystal_density_diffrn    2.664
_cod_original_sg_symbol_H-M      'R -3 c'
_cod_original_formula_sum        'Ca C O3'
_cod_database_code               9015460
loop_
_space_group_symop_operation_xyz
x,y,z
2/3+x,1/3+y,1/3+z
1/3+x,2/3+y,2/3+z
x,x-y,1/2+z
2/3+x,1/3+x-y,5/6+z
1/3+x,2/3+x-y,1/6+z
y,x,1/2-z
2/3+y,1/3+x,5/6-z
1/3+y,2/3+x,1/6-z
-x+y,y,1/2+z
2/3-x+y,1/3+y,5/6+z
1/3-x+y,2/3+y,1/6+z
-x,-x+y,1/2-z
2/3-x,1/3-x+y,5/6-z
1/3-x,2/3-x+y,1/6-z
-y,-x,1/2+z
2/3-y,1/3-x,5/6+z
1/3-y,2/3-x,1/6+z
x-y,-y,1/2-z
2/3+x-y,1/3-y,5/6-z
1/3+x-y,2/3-y,1/6-z
y,-x+y,-z
2/3+y,1/3-x+y,1/3-z
1/3+y,2/3-x+y,2/3-z
-x+y,-x,z
2/3-x+y,1/3-x,1/3+z
1/3-x+y,2/3-x,2/3+z
-x,-y,-z
2/3-x,1/3-y,1/3-z
1/3-x,2/3-y,2/3-z
-y,x-y,z
2/3-y,1/3+x-y,1/3+z
1/3-y,2/3+x-y,2/3+z
x-y,x,-z
2/3+x-y,1/3+x,1/3-z
1/3+x-y,2/3+x,2/3-z
loop_
_atom_site_label
_atom_site_fract_x
_atom_site_fract_y
_atom_site_fract_z
_atom_site_U_iso_or_equiv
Ca 0.00000 0.00000 0.00000 0.04200
C 0.00000 0.00000 0.25000 0.07700
O1 0.24900 0.00000 0.25000 0.07700
loop_
_cod_related_entry_id
_cod_related_entry_database
_cod_related_entry_code
1 AMCSD 0017869

#------------------------------------------------------------------------------
#$Date: 2024-05-23 10:45:01 +0100 (Thu, 23 May 2024) $
#$Revision: 292002 $
#$URL: svn://www.crystallography.net/cod/cif/9/01/54/9015481.cif $
#------------------------------------------------------------------------------
#
# This file is available in the Crystallography Open Database (COD),
# http://www.crystallography.net/. The original data for this entry
# were provided the American Mineralogist Crystal Structure Database,
# http://rruff.geo.arizona.edu/AMS/amcsd.php
#
# The file may be used within the scientific community so long as
# proper attribution is given to the journal article from which the
# data were obtained.
#
data_9015481
loop_
_publ_author_name
'Antao, S. M.'
'Hassan, I.'
_publ_section_title
;
 Temperature dependence of the structural parameters
 in the transformation of aragonite to calcite,
 as determined from in situ synchrotron powder X-ray-diffraction data
 Note: T = 458 C
 Note: P = 101 kPa
;
_journal_name_full               'The Canadian Mineralogist'
_journal_page_first              1225
_journal_page_last               1236
_journal_paper_doi               10.3749/canmin.48.5.1225
_journal_volume                  48
_journal_year                    2010
_chemical_compound_source        'Cuenca, Spain'
_chemical_formula_sum            'C Ca O3'
_chemical_name_mineral           Calcite
_space_group_IT_number           167
_symmetry_space_group_name_Hall  '-R 3 2"c'
_symmetry_space_group_name_H-M   'R -3 c :H'
_cell_angle_alpha                90
_cell_angle_beta                 90
_cell_angle_gamma                120
_cell_length_a                   4.9766
_cell_length_b                   4.9766
_cell_length_c                   17.284
_cell_formula_units_Z            6
_cell_volume                     370.715
_database_code_amcsd             0017857
_exptl_crystal_density_diffrn    2.690
_cod_original_sg_symbol_H-M      'R -3 c'
_cod_original_formula_sum        'Ca C O3'
_cod_database_code               9015481
loop_
_space_group_symop_operation_xyz
x,y,z
2/3+x,1/3+y,1/3+z
1/3+x,2/3+y,2/3+z
x,x-y,1/2+z
2/3+x,1/3+x-y,5/6+z
1/3+x,2/3+x-y,1/6+z
y,x,1/2-z
2/3+y,1/3+x,5/6-z
1/3+y,2/3+x,1/6-z
-x+y,y,1/2+z
2/3-x+y,1/3+y,5/6+z
1/3-x+y,2/3+y,1/6+z
-x,-x+y,1/2-z
2/3-x,1/3-x+y,5/6-z
1/3-x,2/3-x+y,1/6-z
-y,-x,1/2+z
2/3-y,1/3-x,5/6+z
1/3-y,2/3-x,1/6+z
x-y,-y,1/2-z
2/3+x-y,1/3-y,5/6-z
1/3+x-y,2/3-y,1/6-z
y,-x+y,-z
2/3+y,1/3-x+y,1/3-z
1/3+y,2/3-x+y,2/3-z
-x+y,-x,z
2/3-x+y,1/3-x,1/3+z
1/3-x+y,2/3-x,2/3+z
-x,-y,-z
2/3-x,1/3-y,1/3-z
1/3-x,2/3-y,2/3-z
-y,x-y,z
2/3-y,1/3+x-y,1/3+z
1/3-y,2/3+x-y,2/3+z
x-y,x,-z
2/3+x-y,1/3+x,1/3-z
1/3+x-y,2/3+x,2/3-z
loop_
_atom_site_label
_atom_site_fract_x
_atom_site_fract_y
_atom_site_fract_z
_atom_site_U_iso_or_equiv
Ca 0.00000 0.00000 0.00000 0.02380
C 0.00000 0.00000 0.25000 0.04700
O1 0.25540 0.00000 0.25000 0.04700
loop_
_cod_related_entry_id
_cod_related_entry_database
_cod_related_entry_code
1 AMCSD 0017857

#------------------------------------------------------------------------------
#$Date: 2024-05-23 10:45:01 +0100 (Thu, 23 May 2024) $
#$Revision: 292002 $
#$URL: svn://www.crystallography.net/cod/cif/9/01/55/9015510.cif $
#------------------------------------------------------------------------------
#
# This file is available in the Crystallography Open Database (COD),
# http://www.crystallography.net/. The original data for this entry
# were provided the American Mineralogist Crystal Structure Database,
# http://rruff.geo.arizona.edu/AMS/amcsd.php
#
# The file may be used within the scientific community so long as
# proper attribution is given to the journal article from which the
# data were obtained.
#
data_9015510
loop_
_publ_author_name
'Antao, S. M.'
'Hassan, I.'
_publ_section_title
;
 Temperature dependence of the structural parameters
 in the transformation of aragonite to calcite,
 as determined from in situ synchrotron powder X-ray-diffraction data
 Note: T = 135 C
 Note: P = 101 kPa
;
_journal_name_full               'The Canadian Mineralogist'
_journal_page_first              1225
_journal_page_last               1236
_journal_paper_doi               10.3749/canmin.48.5.1225
_journal_volume                  48
_journal_year                    2010
_chemical_compound_source        'Cuenca, Spain'
_chemical_formula_sum            'C Ca O3'
_chemical_name_mineral           Aragonite
_space_group_IT_number           62
_symmetry_space_group_name_Hall  '-P 2n 2a'
_symmetry_space_group_name_H-M   'P m c n'
_cell_angle_alpha                90
_cell_angle_beta                 90
_cell_angle_gamma                90
_cell_length_a                   4.9605
_cell_length_b                   7.9925
_cell_length_c                   5.7629
_cell_formula_units_Z            4
_cell_volume                     228.481
_database_code_amcsd             0017831
_exptl_crystal_density_diffrn    2.910
_cod_original_cell_volume        228.480
_cod_original_formula_sum        'Ca C O3'
_cod_database_code               9015510
loop_
_space_group_symop_operation_xyz
x,y,z
1/2-x,y,z
1/2+x,-y,-z
1/2+x,1/2+y,1/2-z
1/2-x,1/2-y,1/2+z
x,1/2-y,1/2+z
-x,1/2+y,1/2-z
-x,-y,-z
loop_
_atom_site_label
_atom_site_fract_x
_atom_site_fract_y
_atom_site_fract_z
_atom_site_U_iso_or_equiv
Ca 0.25000 0.41390 0.75380 0.01000
C 0.25000 0.76590 -0.06700 0.02800
O1 0.25000 0.91840 -0.08870 0.02800
O2 0.47300 0.68410 -0.09820 0.02800
loop_
_cod_related_entry_id
_cod_related_entry_database
_cod_related_entry_code
1 AMCSD 0017831

#------------------------------------------------------------------------------
#$Date: 2024-05-23 10:45:01 +0100 (Thu, 23 May 2024) $
#$Revision: 292002 $
#$URL: svn://www.crystallography.net/cod/cif/9/01/55/9015561.cif $
#------------------------------------------------------------------------------
#
# This file is available in the Crystallography Open Database (COD),
# http://www.crystallography.net/. The original data for this entry
# were provided the American Mineralogist Crystal Structure Database,
# http://rruff.geo.arizona.edu/AMS/amcsd.php
#
# The file may be used within the scientific community so long as
# proper attribution is given to the journal article from which the
# data were obtained.
#
data_9015561
loop_
_publ_author_name
'Antao, S. M.'
'Hassan, I.'
_publ_section_title
;
 Temperature dependence of the structural parameters
 in the transformation of aragonite to calcite,
 as determined from in situ synchrotron powder X-ray-diffraction data
 Note: T = 379 C
 Note: P = 101 kPa
;
_journal_name_full               'The Canadian Mineralogist'
_journal_page_first              1225
_journal_page_last               1236
_journal_paper_doi               10.3749/canmin.48.5.1225
_journal_volume                  48
_journal_year                    2010
_chemical_compound_source        'Cuenca, Spain'
_chemical_formula_sum            'C Ca O3'
_chemical_name_mineral           Aragonite
_space_group_IT_number           62
_symmetry_space_group_name_Hall  '-P 2n 2a'
_symmetry_space_group_name_H-M   'P m c n'
_cell_angle_alpha                90
_cell_angle_beta                 90
_cell_angle_gamma                90
_cell_length_a                   4.9721
_cell_length_b                   8.0344
_cell_length_c                   5.8183
_cell_formula_units_Z            4
_cell_volume                     232.429
_database_code_amcsd             0017843
_exptl_crystal_density_diffrn    2.860
_cod_original_cell_volume        232.428
_cod_original_formula_sum        'Ca C O3'
_cod_database_code               9015561
loop_
_space_group_symop_operation_xyz
x,y,z
1/2-x,y,z
1/2+x,-y,-z
1/2+x,1/2+y,1/2-z
1/2-x,1/2-y,1/2+z
x,1/2-y,1/2+z
-x,1/2+y,1/2-z
-x,-y,-z
loop_
_atom_site_label
_atom_site_fract_x
_atom_site_fract_y
_atom_site_fract_z
_atom_site_U_iso_or_equiv
Ca 0.25000 0.41320 0.75600 0.01900
C 0.25000 0.76150 -0.06200 0.03800
O1 0.25000 0.91960 -0.08420 0.03800
O2 0.47160 0.68650 -0.09760 0.03800
loop_
_cod_related_entry_id
_cod_related_entry_database
_cod_related_entry_code
1 AMCSD 0017843

#------------------------------------------------------------------------------
#$Date: 2024-05-23 10:45:01 +0100 (Thu, 23 May 2024) $
#$Revision: 292002 $
#$URL: svn://www.crystallography.net/cod/cif/9/01/55/9015593.cif $
#------------------------------------------------------------------------------
#
# This file is available in the Crystallography Open Database (COD),
# http://www.crystallography.net/. The original data for this entry
# were provided the American Mineralogist Crystal Structure Database,
# http://rruff.geo.arizona.edu/AMS/amcsd.php
#
# The file may be used within the scientific community so long as
# proper attribution is given to the journal article from which the
# data were obtained.
#
data_9015593
loop_
_publ_author_name
'Antao, S. M.'
'Hassan, I.'
_publ_section_title
;
 Temperature dependence of the structural parameters
 in the transformation of aragonite to calcite,
 as determined from in situ synchrotron powder X-ray-diffraction data
 Note: T = 318 C
 Note: P = 101 kPa
;
_journal_name_full               'The Canadian Mineralogist'
_journal_page_first              1225
_journal_page_last               1236
_journal_paper_doi               10.3749/canmin.48.5.1225
_journal_volume                  48
_journal_year                    2010
_chemical_compound_source        'Cuenca, Spain'
_chemical_formula_sum            'C Ca O3'
_chemical_name_mineral           Aragonite
_space_group_IT_number           62
_symmetry_space_group_name_Hall  '-P 2n 2a'
_symmetry_space_group_name_H-M   'P m c n'
_cell_angle_alpha                90
_cell_angle_beta                 90
_cell_angle_gamma                90
_cell_length_a                   4.9693
_cell_length_b                   8.0234
_cell_length_c                   5.8037
_cell_formula_units_Z            4
_cell_volume                     231.397
_database_code_amcsd             0017840
_exptl_crystal_density_diffrn    2.873
_cod_original_formula_sum        'Ca C O3'
_cod_database_code               9015593
loop_
_space_group_symop_operation_xyz
x,y,z
1/2-x,y,z
1/2+x,-y,-z
1/2+x,1/2+y,1/2-z
1/2-x,1/2-y,1/2+z
x,1/2-y,1/2+z
-x,1/2+y,1/2-z
-x,-y,-z
loop_
_atom_site_label
_atom_site_fract_x
_atom_site_fract_y
_atom_site_fract_z
_atom_site_U_iso_or_equiv
Ca 0.25000 0.41320 0.75520 0.01700
C 0.25000 0.76280 -0.06330 0.03600
O1 0.25000 0.91980 -0.08520 0.03600
O2 0.47190 0.68600 -0.09780 0.03600
loop_
_cod_related_entry_id
_cod_related_entry_database
_cod_related_entry_code
1 AMCSD 0017840

#------------------------------------------------------------------------------
#$Date: 2024-05-23 10:45:01 +0100 (Thu, 23 May 2024) $
#$Revision: 292002 $
#$URL: svn://www.crystallography.net/cod/cif/9/01/56/9015691.cif $
#------------------------------------------------------------------------------
#
# This file is available in the Crystallography Open Database (COD),
# http://www.crystallography.net/. The original data for this entry
# were provided the American Mineralogist Crystal Structure Database,
# http://rruff.geo.arizona.edu/AMS/amcsd.php
#
# The file may be used within the scientific community so long as
# proper attribution is given to the journal article from which the
# data were obtained.
#
data_9015691
loop_
_publ_author_name
'Antao, S. M.'
'Hassan, I.'
_publ_section_title
;
 Temperature dependence of the structural parameters
 in the transformation of aragonite to calcite,
 as determined from in situ synchrotron powder X-ray-diffraction data
 Note: T = 540 C
 Note: P = 101 kPa
;
_journal_name_full               'The Canadian Mineralogist'
_journal_page_first              1225
_journal_page_last               1236
_journal_paper_doi               10.3749/canmin.48.5.1225
_journal_volume                  48
_journal_year                    2010
_chemical_compound_source        'Cuenca, Spain'
_chemical_formula_sum            'C Ca O3'
_chemical_name_mineral           Calcite
_space_group_IT_number           167
_symmetry_space_group_name_Hall  '-R 3 2"c'
_symmetry_space_group_name_H-M   'R -3 c :H'
_cell_angle_alpha                90
_cell_angle_beta                 90
_cell_angle_gamma                120
_cell_length_a                   4.9771
_cell_length_b                   4.9771
_cell_length_c                   17.3369
_cell_formula_units_Z            6
_cell_volume                     371.925
_database_code_amcsd             0017861
_exptl_crystal_density_diffrn    2.681
_cod_original_cell_volume        371.924
_cod_original_sg_symbol_H-M      'R -3 c'
_cod_original_formula_sum        'Ca C O3'
_cod_database_code               9015691
loop_
_space_group_symop_operation_xyz
x,y,z
2/3+x,1/3+y,1/3+z
1/3+x,2/3+y,2/3+z
x,x-y,1/2+z
2/3+x,1/3+x-y,5/6+z
1/3+x,2/3+x-y,1/6+z
y,x,1/2-z
2/3+y,1/3+x,5/6-z
1/3+y,2/3+x,1/6-z
-x+y,y,1/2+z
2/3-x+y,1/3+y,5/6+z
1/3-x+y,2/3+y,1/6+z
-x,-x+y,1/2-z
2/3-x,1/3-x+y,5/6-z
1/3-x,2/3-x+y,1/6-z
-y,-x,1/2+z
2/3-y,1/3-x,5/6+z
1/3-y,2/3-x,1/6+z
x-y,-y,1/2-z
2/3+x-y,1/3-y,5/6-z
1/3+x-y,2/3-y,1/6-z
y,-x+y,-z
2/3+y,1/3-x+y,1/3-z
1/3+y,2/3-x+y,2/3-z
-x+y,-x,z
2/3-x+y,1/3-x,1/3+z
1/3-x+y,2/3-x,2/3+z
-x,-y,-z
2/3-x,1/3-y,1/3-z
1/3-x,2/3-y,2/3-z
-y,x-y,z
2/3-y,1/3+x-y,1/3+z
1/3-y,2/3+x-y,2/3+z
x-y,x,-z
2/3+x-y,1/3+x,1/3-z
1/3+x-y,2/3+x,2/3-z
loop_
_atom_site_label
_atom_site_fract_x
_atom_site_fract_y
_atom_site_fract_z
_atom_site_U_iso_or_equiv
Ca 0.00000 0.00000 0.00000 0.03480
C 0.00000 0.00000 0.25000 0.05770
O1 0.25160 0.00000 0.25000 0.05770
loop_
_cod_related_entry_id
_cod_related_entry_database
_cod_related_entry_code
1 AMCSD 0017861

#------------------------------------------------------------------------------
#$Date: 2024-05-29 15:00:33 +0100 (Wed, 29 May 2024) $
#$Revision: 292100 $
#$URL: svn://www.crystallography.net/cod/cif/9/01/57/9015761.cif $
#------------------------------------------------------------------------------
#
# This file is available in the Crystallography Open Database (COD),
# http://www.crystallography.net/. The original data for this entry
# were provided the American Mineralogist Crystal Structure Database,
# http://rruff.geo.arizona.edu/AMS/amcsd.php
#
# The file may be used within the scientific community so long as
# proper attribution is given to the journal article from which the
# data were obtained.
#
data_9015761
loop_
_publ_author_name
'Antao, S. M.'
'Hassan, I.'
_publ_section_title
;
 Temperature dependence of the structural parameters
 in the transformation of aragonite to calcite,
 as determined from in situ synchrotron powder X-ray-diffraction data
 Note: T = 620 C
 Note: P = 101 kPa
;
_journal_name_full               'The Canadian Mineralogist'
_journal_page_first              1225
_journal_page_last               1236
_journal_paper_doi               10.3749/canmin.48.5.1225
_journal_volume                  48
_journal_year                    2010
_chemical_compound_source        'Cuenca, Spain'
_chemical_formula_sum            'C Ca O3'
_chemical_name_mineral           Calcite
_space_group_IT_number           167
_symmetry_space_group_name_Hall  '-R 3 2"c'
_symmetry_space_group_name_H-M   'R -3 c :H'
_cell_angle_alpha                90
_cell_angle_beta                 90
_cell_angle_gamma                120
_cell_length_a                   4.9764
_cell_length_b                   4.9764
_cell_length_c                   17.3886
_cell_formula_units_Z            6
_cell_volume                     372.929
_database_code_amcsd             0017865
_exptl_crystal_density_diffrn    2.674
_cod_original_sg_symbol_H-M      'R -3 c'
_cod_original_formula_sum        'Ca C O3'
_cod_database_code               9015761
loop_
_space_group_symop_operation_xyz
x,y,z
2/3+x,1/3+y,1/3+z
1/3+x,2/3+y,2/3+z
x,x-y,1/2+z
2/3+x,1/3+x-y,5/6+z
1/3+x,2/3+x-y,1/6+z
y,x,1/2-z
2/3+y,1/3+x,5/6-z
1/3+y,2/3+x,1/6-z
-x+y,y,1/2+z
2/3-x+y,1/3+y,5/6+z
1/3-x+y,2/3+y,1/6+z
-x,-x+y,1/2-z
2/3-x,1/3-x+y,5/6-z
1/3-x,2/3-x+y,1/6-z
-y,-x,1/2+z
2/3-y,1/3-x,5/6+z
1/3-y,2/3-x,1/6+z
x-y,-y,1/2-z
2/3+x-y,1/3-y,5/6-z
1/3+x-y,2/3-y,1/6-z
y,-x+y,-z
2/3+y,1/3-x+y,1/3-z
1/3+y,2/3-x+y,2/3-z
-x+y,-x,z
2/3-x+y,1/3-x,1/3+z
1/3-x+y,2/3-x,2/3+z
-x,-y,-z
2/3-x,1/3-y,1/3-z
1/3-x,2/3-y,2/3-z
-y,x-y,z
2/3-y,1/3+x-y,1/3+z
1/3-y,2/3+x-y,2/3+z
x-y,x,-z
2/3+x-y,1/3+x,1/3-z
1/3+x-y,2/3+x,2/3-z
loop_
_atom_site_label
_atom_site_fract_x
_atom_site_fract_y
_atom_site_fract_z
_atom_site_U_iso_or_equiv
Ca 0.00000 0.00000 0.00000 0.03840
C 0.00000 0.00000 0.25000 0.06600
O1 0.25070 0.00000 0.25000 0.06600
loop_
_cod_related_entry_id
_cod_related_entry_database
_cod_related_entry_code
1 AMCSD 0017865

#------------------------------------------------------------------------------
#$Date: 2024-05-29 15:00:33 +0100 (Wed, 29 May 2024) $
#$Revision: 292100 $
#$URL: svn://www.crystallography.net/cod/cif/9/01/58/9015835.cif $
#------------------------------------------------------------------------------
#
# This file is available in the Crystallography Open Database (COD),
# http://www.crystallography.net/. The original data for this entry
# were provided the American Mineralogist Crystal Structure Database,
# http://rruff.geo.arizona.edu/AMS/amcsd.php
#
# The file may be used within the scientific community so long as
# proper attribution is given to the journal article from which the
# data were obtained.
#
data_9015835
loop_
_publ_author_name
'Antao, S. M.'
'Hassan, I.'
_publ_section_title
;
 Temperature dependence of the structural parameters
 in the transformation of aragonite to calcite,
 as determined from in situ synchrotron powder X-ray-diffraction data
 Note: T = 398 C
 Note: P = 101 kPa
;
_journal_name_full               'The Canadian Mineralogist'
_journal_page_first              1225
_journal_page_last               1236
_journal_paper_doi               10.3749/canmin.48.5.1225
_journal_volume                  48
_journal_year                    2010
_chemical_compound_source        'Cuenca, Spain'
_chemical_formula_sum            'C Ca O3'
_chemical_name_mineral           Calcite
_space_group_IT_number           167
_symmetry_space_group_name_Hall  '-R 3 2"c'
_symmetry_space_group_name_H-M   'R -3 c :H'
_cell_angle_alpha                90
_cell_angle_beta                 90
_cell_angle_gamma                120
_cell_length_a                   4.974
_cell_length_b                   4.974
_cell_length_c                   17.261
_cell_formula_units_Z            6
_cell_volume                     369.835
_database_code_amcsd             0017854
_exptl_crystal_density_diffrn    2.696
_cod_original_sg_symbol_H-M      'R -3 c'
_cod_original_formula_sum        'Ca C O3'
_cod_database_code               9015835
loop_
_space_group_symop_operation_xyz
x,y,z
2/3+x,1/3+y,1/3+z
1/3+x,2/3+y,2/3+z
x,x-y,1/2+z
2/3+x,1/3+x-y,5/6+z
1/3+x,2/3+x-y,1/6+z
y,x,1/2-z
2/3+y,1/3+x,5/6-z
1/3+y,2/3+x,1/6-z
-x+y,y,1/2+z
2/3-x+y,1/3+y,5/6+z
1/3-x+y,2/3+y,1/6+z
-x,-x+y,1/2-z
2/3-x,1/3-x+y,5/6-z
1/3-x,2/3-x+y,1/6-z
-y,-x,1/2+z
2/3-y,1/3-x,5/6+z
1/3-y,2/3-x,1/6+z
x-y,-y,1/2-z
2/3+x-y,1/3-y,5/6-z
1/3+x-y,2/3-y,1/6-z
y,-x+y,-z
2/3+y,1/3-x+y,1/3-z
1/3+y,2/3-x+y,2/3-z
-x+y,-x,z
2/3-x+y,1/3-x,1/3+z
1/3-x+y,2/3-x,2/3+z
-x,-y,-z
2/3-x,1/3-y,1/3-z
1/3-x,2/3-y,2/3-z
-y,x-y,z
2/3-y,1/3+x-y,1/3+z
1/3-y,2/3+x-y,2/3+z
x-y,x,-z
2/3+x-y,1/3+x,1/3-z
1/3+x-y,2/3+x,2/3-z
loop_
_atom_site_label
_atom_site_fract_x
_atom_site_fract_y
_atom_site_fract_z
_atom_site_U_iso_or_equiv
Ca 0.00000 0.00000 0.00000 0.01300
C 0.00000 0.00000 0.25000 0.05200
O1 0.26100 0.00000 0.25000 0.05200
loop_
_cod_related_entry_id
_cod_related_entry_database
_cod_related_entry_code
1 AMCSD 0017854

#------------------------------------------------------------------------------
#$Date: 2024-05-29 15:00:33 +0100 (Wed, 29 May 2024) $
#$Revision: 292100 $
#$URL: svn://www.crystallography.net/cod/cif/9/01/58/9015851.cif $
#------------------------------------------------------------------------------
#
# This file is available in the Crystallography Open Database (COD),
# http://www.crystallography.net/. The original data for this entry
# were provided the American Mineralogist Crystal Structure Database,
# http://rruff.geo.arizona.edu/AMS/amcsd.php
#
# The file may be used within the scientific community so long as
# proper attribution is given to the journal article from which the
# data were obtained.
#
data_9015851
loop_
_publ_author_name
'Antao, S. M.'
'Hassan, I.'
_publ_section_title
;
 Temperature dependence of the structural parameters
 in the transformation of aragonite to calcite,
 as determined from in situ synchrotron powder X-ray-diffraction data
 Note: T = 434 C
 Note: P = 101 kPa
;
_journal_name_full               'The Canadian Mineralogist'
_journal_page_first              1225
_journal_page_last               1236
_journal_paper_doi               10.3749/canmin.48.5.1225
_journal_volume                  48
_journal_year                    2010
_chemical_compound_source        'Cuenca, Spain'
_chemical_formula_sum            'C Ca O3'
_chemical_name_mineral           Aragonite
_space_group_IT_number           62
_symmetry_space_group_name_Hall  '-P 2n 2a'
_symmetry_space_group_name_H-M   'P m c n'
_cell_angle_alpha                90
_cell_angle_beta                 90
_cell_angle_gamma                90
_cell_length_a                   4.9750
_cell_length_b                   8.0446
_cell_length_c                   5.8329
_cell_formula_units_Z            4
_cell_volume                     233.444
_database_code_amcsd             0017846
_exptl_crystal_density_diffrn    2.848
_cod_original_formula_sum        'Ca C O3'
_cod_database_code               9015851
loop_
_space_group_symop_operation_xyz
x,y,z
1/2-x,y,z
1/2+x,-y,-z
1/2+x,1/2+y,1/2-z
1/2-x,1/2-y,1/2+z
x,1/2-y,1/2+z
-x,1/2+y,1/2-z
-x,-y,-z
loop_
_atom_site_label
_atom_site_fract_x
_atom_site_fract_y
_atom_site_fract_z
_atom_site_U_iso_or_equiv
Ca 0.25000 0.41330 0.75640 0.02000
C 0.25000 0.76130 -0.06220 0.03900
O1 0.25000 0.91950 -0.08390 0.03900
O2 0.47070 0.68650 -0.09680 0.03900
loop_
_cod_related_entry_id
_cod_related_entry_database
_cod_related_entry_code
1 AMCSD 0017846

#------------------------------------------------------------------------------
#$Date: 2024-05-29 15:00:33 +0100 (Wed, 29 May 2024) $
#$Revision: 292100 $
#$URL: svn://www.crystallography.net/cod/cif/9/01/58/9015893.cif $
#------------------------------------------------------------------------------
#
# This file is available in the Crystallography Open Database (COD),
# http://www.crystallography.net/. The original data for this entry
# were provided the American Mineralogist Crystal Structure Database,
# http://rruff.geo.arizona.edu/AMS/amcsd.php
#
# The file may be used within the scientific community so long as
# proper attribution is given to the journal article from which the
# data were obtained.
#
data_9015893
loop_
_publ_author_name
'Antao, S. M.'
'Hassan, I.'
_publ_section_title
;
 Temperature dependence of the structural parameters
 in the transformation of aragonite to calcite,
 as determined from in situ synchrotron powder X-ray-diffraction data
 Note: T = 50 C
 Note: P = 101 kPa
;
_journal_name_full               'The Canadian Mineralogist'
_journal_page_first              1225
_journal_page_last               1236
_journal_paper_doi               10.3749/canmin.48.5.1225
_journal_volume                  48
_journal_year                    2010
_chemical_compound_source        'Cuenca, Spain'
_chemical_formula_sum            'C Ca O3'
_chemical_name_mineral           Aragonite
_space_group_IT_number           62
_symmetry_space_group_name_Hall  '-P 2n 2a'
_symmetry_space_group_name_H-M   'P m c n'
_cell_angle_alpha                90
_cell_angle_beta                 90
_cell_angle_gamma                90
_cell_length_a                   4.9566
_cell_length_b                   7.9808
_cell_length_c                   5.7464
_cell_formula_units_Z            4
_cell_volume                     227.314
_database_code_amcsd             0017827
_exptl_crystal_density_diffrn    2.925
_cod_original_formula_sum        'Ca C O3'
_cod_database_code               9015893
loop_
_space_group_symop_operation_xyz
x,y,z
1/2-x,y,z
1/2+x,-y,-z
1/2+x,1/2+y,1/2-z
1/2-x,1/2-y,1/2+z
x,1/2-y,1/2+z
-x,1/2+y,1/2-z
-x,-y,-z
loop_
_atom_site_label
_atom_site_fract_x
_atom_site_fract_y
_atom_site_fract_z
_atom_site_U_iso_or_equiv
Ca 0.25000 0.41420 0.75380 0.00800
C 0.25000 0.76630 -0.06840 0.02500
O1 0.25000 0.91880 -0.09000 0.02500
O2 0.47340 0.68350 -0.09870 0.02500
loop_
_cod_related_entry_id
_cod_related_entry_database
_cod_related_entry_code
1 AMCSD 0017827

#------------------------------------------------------------------------------
#$Date: 2024-05-29 15:00:33 +0100 (Wed, 29 May 2024) $
#$Revision: 292100 $
#$URL: svn://www.crystallography.net/cod/cif/9/01/59/9015969.cif $
#------------------------------------------------------------------------------
#
# This file is available in the Crystallography Open Database (COD),
# http://www.crystallography.net/. The original data for this entry
# were provided the American Mineralogist Crystal Structure Database,
# http://rruff.geo.arizona.edu/AMS/amcsd.php
#
# The file may be used within the scientific community so long as
# proper attribution is given to the journal article from which the
# data were obtained.
#
data_9015969
loop_
_publ_author_name
'Antao, S. M.'
'Hassan, I.'
_publ_section_title
;
 Temperature dependence of the structural parameters
 in the transformation of aragonite to calcite,
 as determined from in situ synchrotron powder X-ray-diffraction data
 Note: T = 218 C
 Note: P = 101 kPa
;
_journal_name_full               'The Canadian Mineralogist'
_journal_page_first              1225
_journal_page_last               1236
_journal_paper_doi               10.3749/canmin.48.5.1225
_journal_volume                  48
_journal_year                    2010
_chemical_compound_source        'Cuenca, Spain'
_chemical_formula_sum            'C Ca O3'
_chemical_name_mineral           Aragonite
_space_group_IT_number           62
_symmetry_space_group_name_Hall  '-P 2n 2a'
_symmetry_space_group_name_H-M   'P m c n'
_cell_angle_alpha                90
_cell_angle_beta                 90
_cell_angle_gamma                90
_cell_length_a                   4.9644
_cell_length_b                   8.0057
_cell_length_c                   5.7805
_cell_formula_units_Z            4
_cell_volume                     229.737
_database_code_amcsd             0017835
_exptl_crystal_density_diffrn    2.894
_cod_original_formula_sum        'Ca C O3'
_cod_database_code               9015969
loop_
_space_group_symop_operation_xyz
x,y,z
1/2-x,y,z
1/2+x,-y,-z
1/2+x,1/2+y,1/2-z
1/2-x,1/2-y,1/2+z
x,1/2-y,1/2+z
-x,1/2+y,1/2-z
-x,-y,-z
loop_
_atom_site_label
_atom_site_fract_x
_atom_site_fract_y
_atom_site_fract_z
_atom_site_U_iso_or_equiv
Ca 0.25000 0.41360 0.75390 0.01300
C 0.25000 0.76430 -0.06600 0.03400
O1 0.25000 0.91840 -0.08750 0.03400
O2 0.47320 0.68450 -0.09820 0.03400
loop_
_cod_related_entry_id
_cod_related_entry_database
_cod_related_entry_code
1 AMCSD 0017835

#------------------------------------------------------------------------------
#$Date: 2024-05-29 15:00:33 +0100 (Wed, 29 May 2024) $
#$Revision: 292100 $
#$URL: svn://www.crystallography.net/cod/cif/9/01/60/9016017.cif $
#------------------------------------------------------------------------------
#
# This file is available in the Crystallography Open Database (COD),
# http://www.crystallography.net/. The original data for this entry
# were provided the American Mineralogist Crystal Structure Database,
# http://rruff.geo.arizona.edu/AMS/amcsd.php
#
# The file may be used within the scientific community so long as
# proper attribution is given to the journal article from which the
# data were obtained.
#
data_9016017
loop_
_publ_author_name
'Antao, S. M.'
'Hassan, I.'
_publ_section_title
;
 Temperature dependence of the structural parameters
 in the transformation of aragonite to calcite,
 as determined from in situ synchrotron powder X-ray-diffraction data
 Note: T = 398 C
 Note: P = 101 kPa
;
_journal_name_full               'The Canadian Mineralogist'
_journal_page_first              1225
_journal_page_last               1236
_journal_paper_doi               10.3749/canmin.48.5.1225
_journal_volume                  48
_journal_year                    2010
_chemical_compound_source        'Cuenca, Spain'
_chemical_formula_sum            'C Ca O3'
_chemical_name_mineral           Aragonite
_space_group_IT_number           62
_symmetry_space_group_name_Hall  '-P 2n 2a'
_symmetry_space_group_name_H-M   'P m c n'
_cell_angle_alpha                90
_cell_angle_beta                 90
_cell_angle_gamma                90
_cell_length_a                   4.9731
_cell_length_b                   8.0384
_cell_length_c                   5.8236
_cell_formula_units_Z            4
_cell_volume                     232.803
_database_code_amcsd             0017844
_exptl_crystal_density_diffrn    2.856
_cod_original_formula_sum        'Ca C O3'
_cod_database_code               9016017
loop_
_space_group_symop_operation_xyz
x,y,z
1/2-x,y,z
1/2+x,-y,-z
1/2+x,1/2+y,1/2-z
1/2-x,1/2-y,1/2+z
x,1/2-y,1/2+z
-x,1/2+y,1/2-z
-x,-y,-z
loop_
_atom_site_label
_atom_site_fract_x
_atom_site_fract_y
_atom_site_fract_z
_atom_site_U_iso_or_equiv
Ca 0.25000 0.41320 0.75610 0.01900
C 0.25000 0.76140 -0.06190 0.03800
O1 0.25000 0.91960 -0.08380 0.03800
O2 0.47130 0.68660 -0.09740 0.03800
loop_
_cod_related_entry_id
_cod_related_entry_database
_cod_related_entry_code
1 AMCSD 0017844

#------------------------------------------------------------------------------
#$Date: 2024-05-29 15:00:33 +0100 (Wed, 29 May 2024) $
#$Revision: 292100 $
#$URL: svn://www.crystallography.net/cod/cif/9/01/60/9016020.cif $
#------------------------------------------------------------------------------
#
# This file is available in the Crystallography Open Database (COD),
# http://www.crystallography.net/. The original data for this entry
# were provided the American Mineralogist Crystal Structure Database,
# http://rruff.geo.arizona.edu/AMS/amcsd.php
#
# The file may be used within the scientific community so long as
# proper attribution is given to the journal article from which the
# data were obtained.
#
data_9016020
loop_
_publ_author_name
'Antao, S. M.'
'Hassan, I.'
_publ_section_title
;
 Temperature dependence of the structural parameters
 in the transformation of aragonite to calcite,
 as determined from in situ synchrotron powder X-ray-diffraction data
 Note: T = 578 C
 Note: P = 101 kPa
;
_journal_name_full               'The Canadian Mineralogist'
_journal_page_first              1225
_journal_page_last               1236
_journal_paper_doi               10.3749/canmin.48.5.1225
_journal_volume                  48
_journal_year                    2010
_chemical_compound_source        'Cuenca, Spain'
_chemical_formula_sum            'C Ca O3'
_chemical_name_mineral           Calcite
_space_group_IT_number           167
_symmetry_space_group_name_Hall  '-R 3 2"c'
_symmetry_space_group_name_H-M   'R -3 c :H'
_cell_angle_alpha                90
_cell_angle_beta                 90
_cell_angle_gamma                120
_cell_length_a                   4.9767
_cell_length_b                   4.9767
_cell_length_c                   17.3610
_cell_formula_units_Z            6
_cell_volume                     372.382
_database_code_amcsd             0017863
_exptl_crystal_density_diffrn    2.678
_cod_original_sg_symbol_H-M      'R -3 c'
_cod_original_formula_sum        'Ca C O3'
_cod_database_code               9016020
loop_
_space_group_symop_operation_xyz
x,y,z
2/3+x,1/3+y,1/3+z
1/3+x,2/3+y,2/3+z
x,x-y,1/2+z
2/3+x,1/3+x-y,5/6+z
1/3+x,2/3+x-y,1/6+z
y,x,1/2-z
2/3+y,1/3+x,5/6-z
1/3+y,2/3+x,1/6-z
-x+y,y,1/2+z
2/3-x+y,1/3+y,5/6+z
1/3-x+y,2/3+y,1/6+z
-x,-x+y,1/2-z
2/3-x,1/3-x+y,5/6-z
1/3-x,2/3-x+y,1/6-z
-y,-x,1/2+z
2/3-y,1/3-x,5/6+z
1/3-y,2/3-x,1/6+z
x-y,-y,1/2-z
2/3+x-y,1/3-y,5/6-z
1/3+x-y,2/3-y,1/6-z
y,-x+y,-z
2/3+y,1/3-x+y,1/3-z
1/3+y,2/3-x+y,2/3-z
-x+y,-x,z
2/3-x+y,1/3-x,1/3+z
1/3-x+y,2/3-x,2/3+z
-x,-y,-z
2/3-x,1/3-y,1/3-z
1/3-x,2/3-y,2/3-z
-y,x-y,z
2/3-y,1/3+x-y,1/3+z
1/3-y,2/3+x-y,2/3+z
x-y,x,-z
2/3+x-y,1/3+x,1/3-z
1/3+x-y,2/3+x,2/3-z
loop_
_atom_site_label
_atom_site_fract_x
_atom_site_fract_y
_atom_site_fract_z
_atom_site_U_iso_or_equiv
Ca 0.00000 0.00000 0.00000 0.03570
C 0.00000 0.00000 0.25000 0.06100
O1 0.25120 0.00000 0.25000 0.06100
loop_
_cod_related_entry_id
_cod_related_entry_database
_cod_related_entry_code
1 AMCSD 0017863

#------------------------------------------------------------------------------
#$Date: 2024-05-29 15:00:33 +0100 (Wed, 29 May 2024) $
#$Revision: 292100 $
#$URL: svn://www.crystallography.net/cod/cif/9/01/60/9016022.cif $
#------------------------------------------------------------------------------
#
# This file is available in the Crystallography Open Database (COD),
# http://www.crystallography.net/. The original data for this entry
# were provided the American Mineralogist Crystal Structure Database,
# http://rruff.geo.arizona.edu/AMS/amcsd.php
#
# The file may be used within the scientific community so long as
# proper attribution is given to the journal article from which the
# data were obtained.
#
data_9016022
loop_
_publ_author_name
'Sitepu, H.'
_publ_section_title
;
 Texture and structural refinement using neutron diffraction data from
 molybdite (MoO3) and calcite (CaCO3) powders and a Ni-rich Ni50.7Ti49.30 alloy
 Note: Generalized spherical-harmonic model
;
_journal_name_full               'Powder Diffraction'
_journal_page_first              315
_journal_page_last               326
_journal_paper_doi               10.1154/1.3257906
_journal_volume                  24
_journal_year                    2009
_chemical_compound_source        Synthetic
_chemical_formula_sum            'C Ca O3'
_chemical_name_mineral           Calcite
_space_group_IT_number           167
_symmetry_space_group_name_Hall  '-R 3 2"c'
_symmetry_space_group_name_H-M   'R -3 c :H'
_cell_angle_alpha                90
_cell_angle_beta                 90
_cell_angle_gamma                120
_cell_length_a                   4.99026
_cell_length_b                   4.99026
_cell_length_c                   17.0684
_cell_formula_units_Z            6
_cell_volume                     368.103
_database_code_amcsd             0018895
_exptl_crystal_density_diffrn    2.709
_cod_original_sg_symbol_H-M      'R -3 c'
_cod_original_formula_sum        'Ca C O3'
_cod_database_code               9016022
loop_
_space_group_symop_operation_xyz
x,y,z
2/3+x,1/3+y,1/3+z
1/3+x,2/3+y,2/3+z
x,x-y,1/2+z
2/3+x,1/3+x-y,5/6+z
1/3+x,2/3+x-y,1/6+z
y,x,1/2-z
2/3+y,1/3+x,5/6-z
1/3+y,2/3+x,1/6-z
-x+y,y,1/2+z
2/3-x+y,1/3+y,5/6+z
1/3-x+y,2/3+y,1/6+z
-x,-x+y,1/2-z
2/3-x,1/3-x+y,5/6-z
1/3-x,2/3-x+y,1/6-z
-y,-x,1/2+z
2/3-y,1/3-x,5/6+z
1/3-y,2/3-x,1/6+z
x-y,-y,1/2-z
2/3+x-y,1/3-y,5/6-z
1/3+x-y,2/3-y,1/6-z
y,-x+y,-z
2/3+y,1/3-x+y,1/3-z
1/3+y,2/3-x+y,2/3-z
-x+y,-x,z
2/3-x+y,1/3-x,1/3+z
1/3-x+y,2/3-x,2/3+z
-x,-y,-z
2/3-x,1/3-y,1/3-z
1/3-x,2/3-y,2/3-z
-y,x-y,z
2/3-y,1/3+x-y,1/3+z
1/3-y,2/3+x-y,2/3+z
x-y,x,-z
2/3+x-y,1/3+x,1/3-z
1/3+x-y,2/3+x,2/3-z
loop_
_atom_site_aniso_label
_atom_site_aniso_U_11
_atom_site_aniso_U_22
_atom_site_aniso_U_33
_atom_site_aniso_U_12
_atom_site_aniso_U_13
_atom_site_aniso_U_23
Ca 0.01820 0.01820 0.01650 0.00910 0.00000 0.00000
C 0.01430 0.01430 0.01710 0.00715 0.00000 0.00000
O 0.01900 0.02650 0.02580 0.01325 -0.00412 -0.00824
loop_
_atom_site_label
_atom_site_fract_x
_atom_site_fract_y
_atom_site_fract_z
Ca 0.00000 0.00000 0.00000
C 0.00000 0.00000 0.25000
O 0.25644 0.00000 0.25000
loop_
_cod_related_entry_id
_cod_related_entry_database
_cod_related_entry_code
1 AMCSD 0018895

#------------------------------------------------------------------------------
#$Date: 2024-05-29 15:00:33 +0100 (Wed, 29 May 2024) $
#$Revision: 292100 $
#$URL: svn://www.crystallography.net/cod/cif/9/01/60/9016071.cif $
#------------------------------------------------------------------------------
#
# This file is available in the Crystallography Open Database (COD),
# http://www.crystallography.net/. The original data for this entry
# were provided the American Mineralogist Crystal Structure Database,
# http://rruff.geo.arizona.edu/AMS/amcsd.php
#
# The file may be used within the scientific community so long as
# proper attribution is given to the journal article from which the
# data were obtained.
#
data_9016071
loop_
_publ_author_name
'Antao, S. M.'
'Hassan, I.'
_publ_section_title
;
 Temperature dependence of the structural parameters
 in the transformation of aragonite to calcite,
 as determined from in situ synchrotron powder X-ray-diffraction data
 Note: T = 477 C
 Note: P = 101 kPa
;
_journal_name_full               'The Canadian Mineralogist'
_journal_page_first              1225
_journal_page_last               1236
_journal_paper_doi               10.3749/canmin.48.5.1225
_journal_volume                  48
_journal_year                    2010
_chemical_compound_source        'Cuenca, Spain'
_chemical_formula_sum            'C Ca O3'
_chemical_name_mineral           Aragonite
_space_group_IT_number           62
_symmetry_space_group_name_Hall  '-P 2n 2a'
_symmetry_space_group_name_H-M   'P m c n'
_cell_angle_alpha                90
_cell_angle_beta                 90
_cell_angle_gamma                90
_cell_length_a                   4.9778
_cell_length_b                   8.0528
_cell_length_c                   5.8462
_cell_formula_units_Z            4
_cell_volume                     234.346
_database_code_amcsd             0017848
_exptl_crystal_density_diffrn    2.837
_cod_original_formula_sum        'Ca C O3'
_cod_database_code               9016071
loop_
_space_group_symop_operation_xyz
x,y,z
1/2-x,y,z
1/2+x,-y,-z
1/2+x,1/2+y,1/2-z
1/2-x,1/2-y,1/2+z
x,1/2-y,1/2+z
-x,1/2+y,1/2-z
-x,-y,-z
loop_
_atom_site_label
_atom_site_fract_x
_atom_site_fract_y
_atom_site_fract_z
_atom_site_U_iso_or_equiv
Ca 0.25000 0.41200 0.75530 0.02200
C 0.25000 0.75350 -0.05930 0.03600
O1 0.25000 0.91280 -0.08600 0.03600
O2 0.46990 0.68790 -0.09760 0.03600
loop_
_cod_related_entry_id
_cod_related_entry_database
_cod_related_entry_code
1 AMCSD 0017848

#------------------------------------------------------------------------------
#$Date: 2024-05-29 15:00:33 +0100 (Wed, 29 May 2024) $
#$Revision: 292100 $
#$URL: svn://www.crystallography.net/cod/cif/9/01/61/9016146.cif $
#------------------------------------------------------------------------------
#
# This file is available in the Crystallography Open Database (COD),
# http://www.crystallography.net/. The original data for this entry
# were provided the American Mineralogist Crystal Structure Database,
# http://rruff.geo.arizona.edu/AMS/amcsd.php
#
# The file may be used within the scientific community so long as
# proper attribution is given to the journal article from which the
# data were obtained.
#
data_9016146
loop_
_publ_author_name
'Antao, S. M.'
'Hassan, I.'
_publ_section_title
;
 Temperature dependence of the structural parameters
 in the transformation of aragonite to calcite,
 as determined from in situ synchrotron powder X-ray-diffraction data
 Note: T = 70 C
 Note: P = 101 kPa
;
_journal_name_full               'The Canadian Mineralogist'
_journal_page_first              1225
_journal_page_last               1236
_journal_paper_doi               10.3749/canmin.48.5.1225
_journal_volume                  48
_journal_year                    2010
_chemical_compound_source        'Cuenca, Spain'
_chemical_formula_sum            'C Ca O3'
_chemical_name_mineral           Aragonite
_space_group_IT_number           62
_symmetry_space_group_name_Hall  '-P 2n 2a'
_symmetry_space_group_name_H-M   'P m c n'
_cell_angle_alpha                90
_cell_angle_beta                 90
_cell_angle_gamma                90
_cell_length_a                   4.9576
_cell_length_b                   7.9835
_cell_length_c                   5.7503
_cell_formula_units_Z            4
_cell_volume                     227.591
_database_code_amcsd             0017828
_exptl_crystal_density_diffrn    2.921
_cod_original_formula_sum        'Ca C O3'
_cod_database_code               9016146
loop_
_space_group_symop_operation_xyz
x,y,z
1/2-x,y,z
1/2+x,-y,-z
1/2+x,1/2+y,1/2-z
1/2-x,1/2-y,1/2+z
x,1/2-y,1/2+z
-x,1/2+y,1/2-z
-x,-y,-z
loop_
_atom_site_label
_atom_site_fract_x
_atom_site_fract_y
_atom_site_fract_z
_atom_site_U_iso_or_equiv
Ca 0.25000 0.41410 0.75380 0.00800
C 0.25000 0.76620 -0.06810 0.02600
O1 0.25000 0.91870 -0.08960 0.02600
O2 0.47330 0.68370 -0.09830 0.02600
loop_
_cod_related_entry_id
_cod_related_entry_database
_cod_related_entry_code
1 AMCSD 0017828

#------------------------------------------------------------------------------
#$Date: 2024-05-29 15:00:33 +0100 (Wed, 29 May 2024) $
#$Revision: 292100 $
#$URL: svn://www.crystallography.net/cod/cif/9/01/61/9016151.cif $
#------------------------------------------------------------------------------
#
# This file is available in the Crystallography Open Database (COD),
# http://www.crystallography.net/. The original data for this entry
# were provided the American Mineralogist Crystal Structure Database,
# http://rruff.geo.arizona.edu/AMS/amcsd.php
#
# The file may be used within the scientific community so long as
# proper attribution is given to the journal article from which the
# data were obtained.
#
data_9016151
loop_
_publ_author_name
'Antao, S. M.'
'Hassan, I.'
_publ_section_title
;
 Temperature dependence of the structural parameters
 in the transformation of aragonite to calcite,
 as determined from in situ synchrotron powder X-ray-diffraction data
 Note: T = 297 C
 Note: P = 101 kPa
;
_journal_name_full               'The Canadian Mineralogist'
_journal_page_first              1225
_journal_page_last               1236
_journal_paper_doi               10.3749/canmin.48.5.1225
_journal_volume                  48
_journal_year                    2010
_chemical_compound_source        'Cuenca, Spain'
_chemical_formula_sum            'C Ca O3'
_chemical_name_mineral           Aragonite
_space_group_IT_number           62
_symmetry_space_group_name_Hall  '-P 2n 2a'
_symmetry_space_group_name_H-M   'P m c n'
_cell_angle_alpha                90
_cell_angle_beta                 90
_cell_angle_gamma                90
_cell_length_a                   4.9683
_cell_length_b                   8.0196
_cell_length_c                   5.7989
_cell_formula_units_Z            4
_cell_volume                     231.050
_database_code_amcsd             0017839
_exptl_crystal_density_diffrn    2.877
_cod_original_formula_sum        'Ca C O3'
_cod_database_code               9016151
loop_
_space_group_symop_operation_xyz
x,y,z
1/2-x,y,z
1/2+x,-y,-z
1/2+x,1/2+y,1/2-z
1/2-x,1/2-y,1/2+z
x,1/2-y,1/2+z
-x,1/2+y,1/2-z
-x,-y,-z
loop_
_atom_site_label
_atom_site_fract_x
_atom_site_fract_y
_atom_site_fract_z
_atom_site_U_iso_or_equiv
Ca 0.25000 0.41330 0.75500 0.01600
C 0.25000 0.76330 -0.06340 0.03600
O1 0.25000 0.91980 -0.08600 0.03600
O2 0.47210 0.68560 -0.09810 0.03600
loop_
_cod_related_entry_id
_cod_related_entry_database
_cod_related_entry_code
1 AMCSD 0017839

#------------------------------------------------------------------------------
#$Date: 2024-05-29 15:00:33 +0100 (Wed, 29 May 2024) $
#$Revision: 292100 $
#$URL: svn://www.crystallography.net/cod/cif/9/01/61/9016179.cif $
#------------------------------------------------------------------------------
#
# This file is available in the Crystallography Open Database (COD),
# http://www.crystallography.net/. The original data for this entry
# were provided the American Mineralogist Crystal Structure Database,
# http://rruff.geo.arizona.edu/AMS/amcsd.php
#
# The file may be used within the scientific community so long as
# proper attribution is given to the journal article from which the
# data were obtained.
#
data_9016179
loop_
_publ_author_name
'Antao, S. M.'
'Hassan, I.'
_publ_section_title
;
 Temperature dependence of the structural parameters
 in the transformation of aragonite to calcite,
 as determined from in situ synchrotron powder X-ray-diffraction data
 Note: T = 337 C
 Note: P = 101 kPa
;
_journal_name_full               'The Canadian Mineralogist'
_journal_page_first              1225
_journal_page_last               1236
_journal_paper_doi               10.3749/canmin.48.5.1225
_journal_volume                  48
_journal_year                    2010
_chemical_compound_source        'Cuenca, Spain'
_chemical_formula_sum            'C Ca O3'
_chemical_name_mineral           Calcite
_space_group_IT_number           167
_symmetry_space_group_name_Hall  '-R 3 2"c'
_symmetry_space_group_name_H-M   'R -3 c :H'
_cell_angle_alpha                90
_cell_angle_beta                 90
_cell_angle_gamma                120
_cell_length_a                   4.976
_cell_length_b                   4.976
_cell_length_c                   17.227
_cell_formula_units_Z            6
_cell_volume                     369.404
_database_code_amcsd             0017851
_exptl_crystal_density_diffrn    2.699
_cod_original_cell_volume        369.403
_cod_original_sg_symbol_H-M      'R -3 c'
_cod_original_formula_sum        'Ca C O3'
_cod_database_code               9016179
loop_
_space_group_symop_operation_xyz
x,y,z
2/3+x,1/3+y,1/3+z
1/3+x,2/3+y,2/3+z
x,x-y,1/2+z
2/3+x,1/3+x-y,5/6+z
1/3+x,2/3+x-y,1/6+z
y,x,1/2-z
2/3+y,1/3+x,5/6-z
1/3+y,2/3+x,1/6-z
-x+y,y,1/2+z
2/3-x+y,1/3+y,5/6+z
1/3-x+y,2/3+y,1/6+z
-x,-x+y,1/2-z
2/3-x,1/3-x+y,5/6-z
1/3-x,2/3-x+y,1/6-z
-y,-x,1/2+z
2/3-y,1/3-x,5/6+z
1/3-y,2/3-x,1/6+z
x-y,-y,1/2-z
2/3+x-y,1/3-y,5/6-z
1/3+x-y,2/3-y,1/6-z
y,-x+y,-z
2/3+y,1/3-x+y,1/3-z
1/3+y,2/3-x+y,2/3-z
-x+y,-x,z
2/3-x+y,1/3-x,1/3+z
1/3-x+y,2/3-x,2/3+z
-x,-y,-z
2/3-x,1/3-y,1/3-z
1/3-x,2/3-y,2/3-z
-y,x-y,z
2/3-y,1/3+x-y,1/3+z
1/3-y,2/3+x-y,2/3+z
x-y,x,-z
2/3+x-y,1/3+x,1/3-z
1/3+x-y,2/3+x,2/3-z
loop_
_atom_site_label
_atom_site_fract_x
_atom_site_fract_y
_atom_site_fract_z
_atom_site_U_iso_or_equiv
Ca 0.00000 0.00000 0.00000 0.00600
C 0.00000 0.00000 0.25000 0.05500
O1 0.26200 0.00000 0.25000 0.05500
loop_
_cod_related_entry_id
_cod_related_entry_database
_cod_related_entry_code
1 AMCSD 0017851

#------------------------------------------------------------------------------
#$Date: 2024-05-29 15:00:33 +0100 (Wed, 29 May 2024) $
#$Revision: 292100 $
#$URL: svn://www.crystallography.net/cod/cif/9/01/62/9016200.cif $
#------------------------------------------------------------------------------
#
# This file is available in the Crystallography Open Database (COD),
# http://www.crystallography.net/. The original data for this entry
# were provided the American Mineralogist Crystal Structure Database,
# http://rruff.geo.arizona.edu/AMS/amcsd.php
#
# The file may be used within the scientific community so long as
# proper attribution is given to the journal article from which the
# data were obtained.
#
data_9016200
loop_
_publ_author_name
'Antao, S. M.'
'Hassan, I.'
_publ_section_title
;
 Temperature dependence of the structural parameters
 in the transformation of aragonite to calcite,
 as determined from in situ synchrotron powder X-ray-diffraction data
 Note: T = 434 C
 Note: P = 101 kPa
;
_journal_name_full               'The Canadian Mineralogist'
_journal_page_first              1225
_journal_page_last               1236
_journal_paper_doi               10.3749/canmin.48.5.1225
_journal_volume                  48
_journal_year                    2010
_chemical_compound_source        'Cuenca, Spain'
_chemical_formula_sum            'C Ca O3'
_chemical_name_mineral           Calcite
_space_group_IT_number           167
_symmetry_space_group_name_Hall  '-R 3 2"c'
_symmetry_space_group_name_H-M   'R -3 c :H'
_cell_angle_alpha                90
_cell_angle_beta                 90
_cell_angle_gamma                120
_cell_length_a                   4.9757
_cell_length_b                   4.9757
_cell_length_c                   17.273
_cell_formula_units_Z            6
_cell_volume                     370.345
_database_code_amcsd             0017856
_exptl_crystal_density_diffrn    2.693
_cod_original_sg_symbol_H-M      'R -3 c'
_cod_original_formula_sum        'Ca C O3'
_cod_database_code               9016200
loop_
_space_group_symop_operation_xyz
x,y,z
2/3+x,1/3+y,1/3+z
1/3+x,2/3+y,2/3+z
x,x-y,1/2+z
2/3+x,1/3+x-y,5/6+z
1/3+x,2/3+x-y,1/6+z
y,x,1/2-z
2/3+y,1/3+x,5/6-z
1/3+y,2/3+x,1/6-z
-x+y,y,1/2+z
2/3-x+y,1/3+y,5/6+z
1/3-x+y,2/3+y,1/6+z
-x,-x+y,1/2-z
2/3-x,1/3-x+y,5/6-z
1/3-x,2/3-x+y,1/6-z
-y,-x,1/2+z
2/3-y,1/3-x,5/6+z
1/3-y,2/3-x,1/6+z
x-y,-y,1/2-z
2/3+x-y,1/3-y,5/6-z
1/3+x-y,2/3-y,1/6-z
y,-x+y,-z
2/3+y,1/3-x+y,1/3-z
1/3+y,2/3-x+y,2/3-z
-x+y,-x,z
2/3-x+y,1/3-x,1/3+z
1/3-x+y,2/3-x,2/3+z
-x,-y,-z
2/3-x,1/3-y,1/3-z
1/3-x,2/3-y,2/3-z
-y,x-y,z
2/3-y,1/3+x-y,1/3+z
1/3-y,2/3+x-y,2/3+z
x-y,x,-z
2/3+x-y,1/3+x,1/3-z
1/3+x-y,2/3+x,2/3-z
loop_
_atom_site_label
_atom_site_fract_x
_atom_site_fract_y
_atom_site_fract_z
_atom_site_U_iso_or_equiv
Ca 0.00000 0.00000 0.00000 0.02000
C 0.00000 0.00000 0.25000 0.04800
O1 0.25800 0.00000 0.25000 0.04800
loop_
_cod_related_entry_id
_cod_related_entry_database
_cod_related_entry_code
1 AMCSD 0017856

#------------------------------------------------------------------------------
#$Date: 2024-05-29 15:00:33 +0100 (Wed, 29 May 2024) $
#$Revision: 292100 $
#$URL: svn://www.crystallography.net/cod/cif/9/01/62/9016215.cif $
#------------------------------------------------------------------------------
#
# This file is available in the Crystallography Open Database (COD),
# http://www.crystallography.net/. The original data for this entry
# were provided the American Mineralogist Crystal Structure Database,
# http://rruff.geo.arizona.edu/AMS/amcsd.php
#
# The file may be used within the scientific community so long as
# proper attribution is given to the journal article from which the
# data were obtained.
#
data_9016215
loop_
_publ_author_name
'Meyer, H. J.'
_publ_section_title
;
 Uber Vaterit und seine Struktur
;
_journal_name_full               'Angewandte Chemie'
_journal_page_first              678
_journal_page_last               679
_journal_volume                  71
_journal_year                    1959
_chemical_formula_sum            'C Ca O3'
_chemical_name_mineral           Vaterite
_space_group_IT_number           62
_symmetry_space_group_name_Hall  '-P 2c 2ab'
_symmetry_space_group_name_H-M   'P b n m'
_cell_angle_alpha                90
_cell_angle_beta                 90
_cell_angle_gamma                90
_cell_length_a                   4.13
_cell_length_b                   7.15
_cell_length_c                   8.48
_cell_formula_units_Z            4
_cell_volume                     250.410
_database_code_amcsd             0019139
_exptl_crystal_density_diffrn    2.655
_cod_original_formula_sum        'Ca C O3'
_cod_database_code               9016215
loop_
_space_group_symop_operation_xyz
x,y,z
x,y,1/2-z
-x,-y,1/2+z
1/2+x,1/2-y,1/2+z
1/2-x,1/2+y,1/2-z
1/2-x,1/2+y,z
1/2+x,1/2-y,-z
-x,-y,-z
loop_
_atom_site_label
_atom_site_fract_x
_atom_site_fract_y
_atom_site_fract_z
Ca 0.00000 0.00000 0.00000
C 0.15700 0.66700 0.25000
O1 0.47100 0.66700 0.25000
O2 0.00000 0.66700 0.11800
loop_
_cod_related_entry_id
_cod_related_entry_database
_cod_related_entry_code
1 AMCSD 0019139

#------------------------------------------------------------------------------
#$Date: 2024-05-29 15:00:33 +0100 (Wed, 29 May 2024) $
#$Revision: 292100 $
#$URL: svn://www.crystallography.net/cod/cif/9/01/62/9016223.cif $
#------------------------------------------------------------------------------
#
# This file is available in the Crystallography Open Database (COD),
# http://www.crystallography.net/. The original data for this entry
# were provided the American Mineralogist Crystal Structure Database,
# http://rruff.geo.arizona.edu/AMS/amcsd.php
#
# The file may be used within the scientific community so long as
# proper attribution is given to the journal article from which the
# data were obtained.
#
data_9016223
loop_
_publ_author_name
'Antao, S. M.'
'Hassan, I.'
_publ_section_title
;
 Temperature dependence of the structural parameters
 in the transformation of aragonite to calcite,
 as determined from in situ synchrotron powder X-ray-diffraction data
 Note: T = 175 C
 Note: P = 101 kPa
;
_journal_name_full               'The Canadian Mineralogist'
_journal_page_first              1225
_journal_page_last               1236
_journal_paper_doi               10.3749/canmin.48.5.1225
_journal_volume                  48
_journal_year                    2010
_chemical_compound_source        'Cuenca, Spain'
_chemical_formula_sum            'C Ca O3'
_chemical_name_mineral           Aragonite
_space_group_IT_number           62
_symmetry_space_group_name_Hall  '-P 2n 2a'
_symmetry_space_group_name_H-M   'P m c n'
_cell_angle_alpha                90
_cell_angle_beta                 90
_cell_angle_gamma                90
_cell_length_a                   4.9624
_cell_length_b                   7.9989
_cell_length_c                   5.7714
_cell_formula_units_Z            4
_cell_volume                     229.088
_database_code_amcsd             0017833
_exptl_crystal_density_diffrn    2.902
_cod_original_formula_sum        'Ca C O3'
_cod_database_code               9016223
loop_
_space_group_symop_operation_xyz
x,y,z
1/2-x,y,z
1/2+x,-y,-z
1/2+x,1/2+y,1/2-z
1/2-x,1/2-y,1/2+z
x,1/2-y,1/2+z
-x,1/2+y,1/2-z
-x,-y,-z
loop_
_atom_site_label
_atom_site_fract_x
_atom_site_fract_y
_atom_site_fract_z
_atom_site_U_iso_or_equiv
Ca 0.25000 0.41390 0.75380 0.01200
C 0.25000 0.76450 -0.06680 0.03100
O1 0.25000 0.91790 -0.08840 0.03100
O2 0.47380 0.68430 -0.09810 0.03100
loop_
_cod_related_entry_id
_cod_related_entry_database
_cod_related_entry_code
1 AMCSD 0017833

#------------------------------------------------------------------------------
#$Date: 2024-05-29 15:00:33 +0100 (Wed, 29 May 2024) $
#$Revision: 292100 $
#$URL: svn://www.crystallography.net/cod/cif/9/01/62/9016232.cif $
#------------------------------------------------------------------------------
#
# This file is available in the Crystallography Open Database (COD),
# http://www.crystallography.net/. The original data for this entry
# were provided the American Mineralogist Crystal Structure Database,
# http://rruff.geo.arizona.edu/AMS/amcsd.php
#
# The file may be used within the scientific community so long as
# proper attribution is given to the journal article from which the
# data were obtained.
#
data_9016232
loop_
_publ_author_name
'Antao, S. M.'
'Hassan, I.'
_publ_section_title
;
 Temperature dependence of the structural parameters
 in the transformation of aragonite to calcite,
 as determined from in situ synchrotron powder X-ray-diffraction data
 Note: T = 458 C
 Note: P = 101 kPa
;
_journal_name_full               'The Canadian Mineralogist'
_journal_page_first              1225
_journal_page_last               1236
_journal_paper_doi               10.3749/canmin.48.5.1225
_journal_volume                  48
_journal_year                    2010
_chemical_compound_source        'Cuenca, Spain'
_chemical_formula_sum            'C Ca O3'
_chemical_name_mineral           Aragonite
_space_group_IT_number           62
_symmetry_space_group_name_Hall  '-P 2n 2a'
_symmetry_space_group_name_H-M   'P m c n'
_cell_angle_alpha                90
_cell_angle_beta                 90
_cell_angle_gamma                90
_cell_length_a                   4.9767
_cell_length_b                   8.0486
_cell_length_c                   5.8396
_cell_formula_units_Z            4
_cell_volume                     233.908
_database_code_amcsd             0017847
_exptl_crystal_density_diffrn    2.842
_cod_original_formula_sum        'Ca C O3'
_cod_database_code               9016232
loop_
_space_group_symop_operation_xyz
x,y,z
1/2-x,y,z
1/2+x,-y,-z
1/2+x,1/2+y,1/2-z
1/2-x,1/2-y,1/2+z
x,1/2-y,1/2+z
-x,1/2+y,1/2-z
-x,-y,-z
loop_
_atom_site_label
_atom_site_fract_x
_atom_site_fract_y
_atom_site_fract_z
_atom_site_U_iso_or_equiv
Ca 0.25000 0.41310 0.75640 0.02100
C 0.25000 0.76050 -0.06250 0.03900
O1 0.25000 0.91860 -0.08450 0.03900
O2 0.47010 0.68650 -0.09630 0.03900
loop_
_cod_related_entry_id
_cod_related_entry_database
_cod_related_entry_code
1 AMCSD 0017847

#------------------------------------------------------------------------------
#$Date: 2024-05-29 15:00:33 +0100 (Wed, 29 May 2024) $
#$Revision: 292100 $
#$URL: svn://www.crystallography.net/cod/cif/9/01/62/9016240.cif $
#------------------------------------------------------------------------------
#
# This file is available in the Crystallography Open Database (COD),
# http://www.crystallography.net/. The original data for this entry
# were provided the American Mineralogist Crystal Structure Database,
# http://rruff.geo.arizona.edu/AMS/amcsd.php
#
# The file may be used within the scientific community so long as
# proper attribution is given to the journal article from which the
# data were obtained.
#
data_9016240
loop_
_publ_author_name
'Antao, S. M.'
'Hassan, I.'
_publ_section_title
;
 Temperature dependence of the structural parameters
 in the transformation of aragonite to calcite,
 as determined from in situ synchrotron powder X-ray-diffraction data
 Note: T = 258 C
 Note: P = 101 kPa
;
_journal_name_full               'The Canadian Mineralogist'
_journal_page_first              1225
_journal_page_last               1236
_journal_paper_doi               10.3749/canmin.48.5.1225
_journal_volume                  48
_journal_year                    2010
_chemical_compound_source        'Cuenca, Spain'
_chemical_formula_sum            'C Ca O3'
_chemical_name_mineral           Aragonite
_space_group_IT_number           62
_symmetry_space_group_name_Hall  '-P 2n 2a'
_symmetry_space_group_name_H-M   'P m c n'
_cell_angle_alpha                90
_cell_angle_beta                 90
_cell_angle_gamma                90
_cell_length_a                   4.9664
_cell_length_b                   8.0126
_cell_length_c                   5.7898
_cell_formula_units_Z            4
_cell_volume                     230.398
_database_code_amcsd             0017837
_exptl_crystal_density_diffrn    2.885
_cod_original_formula_sum        'Ca C O3'
_cod_database_code               9016240
loop_
_space_group_symop_operation_xyz
x,y,z
1/2-x,y,z
1/2+x,-y,-z
1/2+x,1/2+y,1/2-z
1/2-x,1/2-y,1/2+z
x,1/2-y,1/2+z
-x,1/2+y,1/2-z
-x,-y,-z
loop_
_atom_site_label
_atom_site_fract_x
_atom_site_fract_y
_atom_site_fract_z
_atom_site_U_iso_or_equiv
Ca 0.25000 0.41340 0.75450 0.01400
C 0.25000 0.76360 -0.06490 0.03500
O1 0.25000 0.91900 -0.08630 0.03500
O2 0.47260 0.68530 -0.09830 0.03500
loop_
_cod_related_entry_id
_cod_related_entry_database
_cod_related_entry_code
1 AMCSD 0017837

#------------------------------------------------------------------------------
#$Date: 2024-05-29 15:00:33 +0100 (Wed, 29 May 2024) $
#$Revision: 292100 $
#$URL: svn://www.crystallography.net/cod/cif/9/01/64/9016464.cif $
#------------------------------------------------------------------------------
#
# This file is available in the Crystallography Open Database (COD),
# http://www.crystallography.net/. The original data for this entry
# were provided the American Mineralogist Crystal Structure Database,
# http://rruff.geo.arizona.edu/AMS/amcsd.php
#
# The file may be used within the scientific community so long as
# proper attribution is given to the journal article from which the
# data were obtained.
#
data_9016464
loop_
_publ_author_name
'Antao, S. M.'
'Hassan, I.'
_publ_section_title
;
 Temperature dependence of the structural parameters
 in the transformation of aragonite to calcite,
 as determined from in situ synchrotron powder X-ray-diffraction data
 Note: T = 477 C
 Note: P = 101 kPa
;
_journal_name_full               'The Canadian Mineralogist'
_journal_page_first              1225
_journal_page_last               1236
_journal_paper_doi               10.3749/canmin.48.5.1225
_journal_volume                  48
_journal_year                    2010
_chemical_compound_source        'Cuenca, Spain'
_chemical_formula_sum            'C Ca O3'
_chemical_name_mineral           Calcite
_space_group_IT_number           167
_symmetry_space_group_name_Hall  '-R 3 2"c'
_symmetry_space_group_name_H-M   'R -3 c :H'
_cell_angle_alpha                90
_cell_angle_beta                 90
_cell_angle_gamma                120
_cell_length_a                   4.9775
_cell_length_b                   4.9775
_cell_length_c                   17.2949
_cell_formula_units_Z            6
_cell_volume                     371.083
_database_code_amcsd             0017858
_exptl_crystal_density_diffrn    2.687
_cod_original_sg_symbol_H-M      'R -3 c'
_cod_original_formula_sum        'Ca C O3'
_cod_database_code               9016464
loop_
_space_group_symop_operation_xyz
x,y,z
2/3+x,1/3+y,1/3+z
1/3+x,2/3+y,2/3+z
x,x-y,1/2+z
2/3+x,1/3+x-y,5/6+z
1/3+x,2/3+x-y,1/6+z
y,x,1/2-z
2/3+y,1/3+x,5/6-z
1/3+y,2/3+x,1/6-z
-x+y,y,1/2+z
2/3-x+y,1/3+y,5/6+z
1/3-x+y,2/3+y,1/6+z
-x,-x+y,1/2-z
2/3-x,1/3-x+y,5/6-z
1/3-x,2/3-x+y,1/6-z
-y,-x,1/2+z
2/3-y,1/3-x,5/6+z
1/3-y,2/3-x,1/6+z
x-y,-y,1/2-z
2/3+x-y,1/3-y,5/6-z
1/3+x-y,2/3-y,1/6-z
y,-x+y,-z
2/3+y,1/3-x+y,1/3-z
1/3+y,2/3-x+y,2/3-z
-x+y,-x,z
2/3-x+y,1/3-x,1/3+z
1/3-x+y,2/3-x,2/3+z
-x,-y,-z
2/3-x,1/3-y,1/3-z
1/3-x,2/3-y,2/3-z
-y,x-y,z
2/3-y,1/3+x-y,1/3+z
1/3-y,2/3+x-y,2/3+z
x-y,x,-z
2/3+x-y,1/3+x,1/3-z
1/3+x-y,2/3+x,2/3-z
loop_
_atom_site_label
_atom_site_fract_x
_atom_site_fract_y
_atom_site_fract_z
_atom_site_U_iso_or_equiv
Ca 0.00000 0.00000 0.00000 0.02740
C 0.00000 0.00000 0.25000 0.04760
O1 0.25290 0.00000 0.25000 0.04760
loop_
_cod_related_entry_id
_cod_related_entry_database
_cod_related_entry_code
1 AMCSD 0017858

#------------------------------------------------------------------------------
#$Date: 2024-05-29 15:00:33 +0100 (Wed, 29 May 2024) $
#$Revision: 292100 $
#$URL: svn://www.crystallography.net/cod/cif/9/01/65/9016526.cif $
#------------------------------------------------------------------------------
#
# This file is available in the Crystallography Open Database (COD),
# http://www.crystallography.net/. The original data for this entry
# were provided the American Mineralogist Crystal Structure Database,
# http://rruff.geo.arizona.edu/AMS/amcsd.php
#
# The file may be used within the scientific community so long as
# proper attribution is given to the journal article from which the
# data were obtained.
#
data_9016526
loop_
_publ_author_name
'Antao, S. M.'
'Hassan, I.'
_publ_section_title
;
 Temperature dependence of the structural parameters
 in the transformation of aragonite to calcite,
 as determined from in situ synchrotron powder X-ray-diffraction data
 Note: T = 113 C
 Note: P = 101 kPa
;
_journal_name_full               'The Canadian Mineralogist'
_journal_page_first              1225
_journal_page_last               1236
_journal_paper_doi               10.3749/canmin.48.5.1225
_journal_volume                  48
_journal_year                    2010
_chemical_compound_source        'Cuenca, Spain'
_chemical_formula_sum            'C Ca O3'
_chemical_name_mineral           Aragonite
_space_group_IT_number           62
_symmetry_space_group_name_Hall  '-P 2n 2a'
_symmetry_space_group_name_H-M   'P m c n'
_cell_angle_alpha                90
_cell_angle_beta                 90
_cell_angle_gamma                90
_cell_length_a                   4.9594
_cell_length_b                   7.9893
_cell_length_c                   5.7584
_cell_formula_units_Z            4
_cell_volume                     228.160
_database_code_amcsd             0017830
_exptl_crystal_density_diffrn    2.914
_cod_original_formula_sum        'Ca C O3'
_cod_database_code               9016526
loop_
_space_group_symop_operation_xyz
x,y,z
1/2-x,y,z
1/2+x,-y,-z
1/2+x,1/2+y,1/2-z
1/2-x,1/2-y,1/2+z
x,1/2-y,1/2+z
-x,1/2+y,1/2-z
-x,-y,-z
loop_
_atom_site_label
_atom_site_fract_x
_atom_site_fract_y
_atom_site_fract_z
_atom_site_U_iso_or_equiv
Ca 0.25000 0.41410 0.75370 0.00900
C 0.25000 0.76620 -0.06770 0.02800
O1 0.25000 0.91880 -0.08910 0.02800
O2 0.47330 0.68380 -0.09840 0.02800
loop_
_cod_related_entry_id
_cod_related_entry_database
_cod_related_entry_code
1 AMCSD 0017830

#------------------------------------------------------------------------------
#$Date: 2024-05-29 15:00:33 +0100 (Wed, 29 May 2024) $
#$Revision: 292100 $
#$URL: svn://www.crystallography.net/cod/cif/9/01/65/9016547.cif $
#------------------------------------------------------------------------------
#
# This file is available in the Crystallography Open Database (COD),
# http://www.crystallography.net/. The original data for this entry
# were provided the American Mineralogist Crystal Structure Database,
# http://rruff.geo.arizona.edu/AMS/amcsd.php
#
# The file may be used within the scientific community so long as
# proper attribution is given to the journal article from which the
# data were obtained.
#
data_9016547
loop_
_publ_author_name
'Le Bail, A.'
'Ouhenia, S.'
'Chateigner, D.'
_publ_section_title
;
 Microtwinning hypothesis for a more ordered vaterite model
 Note: Meyer (1959) model, not preferred
;
_journal_name_full               'Powder Diffraction'
_journal_page_first              16
_journal_page_last               21
_journal_paper_doi               10.1154/1.3552994
_journal_volume                  26
_journal_year                    2011
_chemical_compound_source        Synthetic
_chemical_formula_sum            'C Ca O3'
_chemical_name_mineral           Vaterite
_space_group_IT_number           62
_symmetry_space_group_name_Hall  '-P 2c 2ab'
_symmetry_space_group_name_H-M   'P b n m'
_cell_angle_alpha                90
_cell_angle_beta                 90
_cell_angle_gamma                90
_cell_length_a                   4.1291
_cell_length_b                   7.1581
_cell_length_c                   8.4764
_cell_formula_units_Z            4
_cell_volume                     250.533
_database_code_amcsd             0019140
_exptl_crystal_density_diffrn    2.654
_cod_original_formula_sum        'Ca C O3'
_cod_database_code               9016547
loop_
_space_group_symop_operation_xyz
x,y,z
x,y,1/2-z
-x,-y,1/2+z
1/2+x,1/2-y,1/2+z
1/2-x,1/2+y,1/2-z
1/2-x,1/2+y,z
1/2+x,1/2-y,-z
-x,-y,-z
loop_
_atom_site_label
_atom_site_fract_x
_atom_site_fract_y
_atom_site_fract_z
_atom_site_U_iso_or_equiv
Ca 0.00000 0.00000 0.00000 0.02128
C 0.07940 0.64600 0.25000 0.05446
O1 0.37220 0.58900 0.25000 0.05446
O2 -0.05520 0.66780 0.12190 0.05446
loop_
_cod_related_entry_id
_cod_related_entry_database
_cod_related_entry_code
1 AMCSD 0019140

#------------------------------------------------------------------------------
#$Date: 2024-05-29 15:00:33 +0100 (Wed, 29 May 2024) $
#$Revision: 292100 $
#$URL: svn://www.crystallography.net/cod/cif/9/01/66/9016600.cif $
#------------------------------------------------------------------------------
#
# This file is available in the Crystallography Open Database (COD),
# http://www.crystallography.net/. The original data for this entry
# were provided the American Mineralogist Crystal Structure Database,
# http://rruff.geo.arizona.edu/AMS/amcsd.php
#
# The file may be used within the scientific community so long as
# proper attribution is given to the journal article from which the
# data were obtained.
#
data_9016600
loop_
_publ_author_name
'Antao, S. M.'
'Hassan, I.'
_publ_section_title
;
 Temperature dependence of the structural parameters
 in the transformation of aragonite to calcite,
 as determined from in situ synchrotron powder X-ray-diffraction data
 Note: T = 420 C
 Note: P = 101 kPa
;
_journal_name_full               'The Canadian Mineralogist'
_journal_page_first              1225
_journal_page_last               1236
_journal_paper_doi               10.3749/canmin.48.5.1225
_journal_volume                  48
_journal_year                    2010
_chemical_compound_source        'Cuenca, Spain'
_chemical_formula_sum            'C Ca O3'
_chemical_name_mineral           Aragonite
_space_group_IT_number           62
_symmetry_space_group_name_Hall  '-P 2n 2a'
_symmetry_space_group_name_H-M   'P m c n'
_cell_angle_alpha                90
_cell_angle_beta                 90
_cell_angle_gamma                90
_cell_length_a                   4.9744
_cell_length_b                   8.0432
_cell_length_c                   5.8300
_cell_formula_units_Z            4
_cell_volume                     233.259
_database_code_amcsd             0017845
_exptl_crystal_density_diffrn    2.850
_cod_original_formula_sum        'Ca C O3'
_cod_database_code               9016600
loop_
_space_group_symop_operation_xyz
x,y,z
1/2-x,y,z
1/2+x,-y,-z
1/2+x,1/2+y,1/2-z
1/2-x,1/2-y,1/2+z
x,1/2-y,1/2+z
-x,1/2+y,1/2-z
-x,-y,-z
loop_
_atom_site_label
_atom_site_fract_x
_atom_site_fract_y
_atom_site_fract_z
_atom_site_U_iso_or_equiv
Ca 0.25000 0.41320 0.75630 0.02000
C 0.25000 0.76150 -0.06170 0.03900
O1 0.25000 0.91940 -0.08370 0.03900
O2 0.47090 0.68650 -0.09680 0.03900
loop_
_cod_related_entry_id
_cod_related_entry_database
_cod_related_entry_code
1 AMCSD 0017845

#------------------------------------------------------------------------------
#$Date: 2024-05-29 15:00:33 +0100 (Wed, 29 May 2024) $
#$Revision: 292100 $
#$URL: svn://www.crystallography.net/cod/cif/9/01/67/9016705.cif $
#------------------------------------------------------------------------------
#
# This file is available in the Crystallography Open Database (COD),
# http://www.crystallography.net/. The original data for this entry
# were provided the American Mineralogist Crystal Structure Database,
# http://rruff.geo.arizona.edu/AMS/amcsd.php
#
# The file may be used within the scientific community so long as
# proper attribution is given to the journal article from which the
# data were obtained.
#
data_9016705
loop_
_publ_author_name
'Antao, S. M.'
'Hassan, I.'
_publ_section_title
;
 Temperature dependence of the structural parameters
 in the transformation of aragonite to calcite,
 as determined from in situ synchrotron powder X-ray-diffraction data
 Note: T = 297 C
 Note: P = 101 kPa
;
_journal_name_full               'The Canadian Mineralogist'
_journal_page_first              1225
_journal_page_last               1236
_journal_paper_doi               10.3749/canmin.48.5.1225
_journal_volume                  48
_journal_year                    2010
_chemical_compound_source        'Cuenca, Spain'
_chemical_formula_sum            'C Ca O3'
_chemical_name_mineral           Calcite
_space_group_IT_number           167
_symmetry_space_group_name_Hall  '-R 3 2"c'
_symmetry_space_group_name_H-M   'R -3 c :H'
_cell_angle_alpha                90
_cell_angle_beta                 90
_cell_angle_gamma                120
_cell_length_a                   4.980
_cell_length_b                   4.980
_cell_length_c                   17.192
_cell_formula_units_Z            6
_cell_volume                     369.246
_database_code_amcsd             0017849
_exptl_crystal_density_diffrn    2.701
_cod_original_sg_symbol_H-M      'R -3 c'
_cod_original_formula_sum        'Ca C O3'
_cod_database_code               9016705
loop_
_space_group_symop_operation_xyz
x,y,z
2/3+x,1/3+y,1/3+z
1/3+x,2/3+y,2/3+z
x,x-y,1/2+z
2/3+x,1/3+x-y,5/6+z
1/3+x,2/3+x-y,1/6+z
y,x,1/2-z
2/3+y,1/3+x,5/6-z
1/3+y,2/3+x,1/6-z
-x+y,y,1/2+z
2/3-x+y,1/3+y,5/6+z
1/3-x+y,2/3+y,1/6+z
-x,-x+y,1/2-z
2/3-x,1/3-x+y,5/6-z
1/3-x,2/3-x+y,1/6-z
-y,-x,1/2+z
2/3-y,1/3-x,5/6+z
1/3-y,2/3-x,1/6+z
x-y,-y,1/2-z
2/3+x-y,1/3-y,5/6-z
1/3+x-y,2/3-y,1/6-z
y,-x+y,-z
2/3+y,1/3-x+y,1/3-z
1/3+y,2/3-x+y,2/3-z
-x+y,-x,z
2/3-x+y,1/3-x,1/3+z
1/3-x+y,2/3-x,2/3+z
-x,-y,-z
2/3-x,1/3-y,1/3-z
1/3-x,2/3-y,2/3-z
-y,x-y,z
2/3-y,1/3+x-y,1/3+z
1/3-y,2/3+x-y,2/3+z
x-y,x,-z
2/3+x-y,1/3+x,1/3-z
1/3+x-y,2/3+x,2/3-z
loop_
_atom_site_label
_atom_site_fract_x
_atom_site_fract_y
_atom_site_fract_z
_atom_site_U_iso_or_equiv
Ca 0.00000 0.00000 0.00000 0.00500
C 0.00000 0.00000 0.25000 0.06500
O1 0.26100 0.00000 0.25000 0.06500
loop_
_cod_related_entry_id
_cod_related_entry_database
_cod_related_entry_code
1 AMCSD 0017849

#------------------------------------------------------------------------------
#$Date: 2021-04-22 18:34:01 +0100 (Thu, 22 Apr 2021) $
#$Revision: 264423 $
#$URL: svn://www.crystallography.net/cod/cif/9/01/67/9016706.cif $
#------------------------------------------------------------------------------
#
# This file is available in the Crystallography Open Database (COD),
# http://www.crystallography.net/. The original data for this entry
# were provided the American Mineralogist Crystal Structure Database,
# http://rruff.geo.arizona.edu/AMS/amcsd.php
#
# The file may be used within the scientific community so long as
# proper attribution is given to the journal article from which the
# data were obtained.
#
data_9016706
loop_
_publ_author_name
'Ondrus, P.'
'Veselovsky, F.'
'Gabasova, A.'
'Hlousek, J.'
'Srein, V.'
'Vavrnn, I.'
'Skala, R.'
'Sejkora, J.'
'Drabek, M.'
_publ_section_title
;
 Primary minerals of the Jachymov ore district
;
_journal_name_full               'Journal of the Czech Geological Society'
_journal_page_first              19
_journal_page_last               147
_journal_volume                  48
_journal_year                    2003
_chemical_compound_source        'Jachymov, Bohemia, Czech Republic'
_chemical_formula_sum            'C Ca O3'
_chemical_name_mineral           Calcite
_space_group_IT_number           167
_symmetry_space_group_name_Hall  '-R 3 2"c'
_symmetry_space_group_name_H-M   'R -3 c :H'
_cell_angle_alpha                90
_cell_angle_beta                 90
_cell_angle_gamma                120
_cell_formula_units_Z            6
_cell_length_a                   4.9844
_cell_length_b                   4.9844
_cell_length_c                   17.0376
_cell_volume                     366.577
_database_code_amcsd             0017593
_exptl_crystal_density_diffrn    2.720
_cod_depositor_comments
;
 Added the _cell_formula_units_Z data item.

 Antanas Vaitkus,
 2021-04-22
;
_cod_original_sg_symbol_H-M      'R -3 c'
_cod_original_formula_sum        'Ca C O3'
_cod_database_code               9016706
loop_
_space_group_symop_operation_xyz
x,y,z
2/3+x,1/3+y,1/3+z
1/3+x,2/3+y,2/3+z
x,x-y,1/2+z
2/3+x,1/3+x-y,5/6+z
1/3+x,2/3+x-y,1/6+z
y,x,1/2-z
2/3+y,1/3+x,5/6-z
1/3+y,2/3+x,1/6-z
-x+y,y,1/2+z
2/3-x+y,1/3+y,5/6+z
1/3-x+y,2/3+y,1/6+z
-x,-x+y,1/2-z
2/3-x,1/3-x+y,5/6-z
1/3-x,2/3-x+y,1/6-z
-y,-x,1/2+z
2/3-y,1/3-x,5/6+z
1/3-y,2/3-x,1/6+z
x-y,-y,1/2-z
2/3+x-y,1/3-y,5/6-z
1/3+x-y,2/3-y,1/6-z
y,-x+y,-z
2/3+y,1/3-x+y,1/3-z
1/3+y,2/3-x+y,2/3-z
-x+y,-x,z
2/3-x+y,1/3-x,1/3+z
1/3-x+y,2/3-x,2/3+z
-x,-y,-z
2/3-x,1/3-y,1/3-z
1/3-x,2/3-y,2/3-z
-y,x-y,z
2/3-y,1/3+x-y,1/3+z
1/3-y,2/3+x-y,2/3+z
x-y,x,-z
2/3+x-y,1/3+x,1/3-z
1/3+x-y,2/3+x,2/3-z
loop_
_atom_site_label
_atom_site_fract_x
_atom_site_fract_y
_atom_site_fract_z
_atom_site_U_iso_or_equiv
Ca 0.00000 0.00000 0.00000 0.03445
C 0.00000 0.00000 0.25000 0.03420
O 0.25960 0.00000 0.25000 0.04521
loop_
_cod_related_entry_id
_cod_related_entry_database
_cod_related_entry_code
1 AMCSD 0017593

#------------------------------------------------------------------------------
#$Date: 2024-05-29 15:00:33 +0100 (Wed, 29 May 2024) $
#$Revision: 292100 $
#$URL: svn://www.crystallography.net/cod/cif/9/01/74/9017408.cif $
#------------------------------------------------------------------------------
#
# This file is available in the Crystallography Open Database (COD),
# http://www.crystallography.net/. The original data for this entry
# were provided the American Mineralogist Crystal Structure Database,
# http://rruff.geo.arizona.edu/AMS/amcsd.php
#
# The file may be used within the scientific community so long as
# proper attribution is given to the journal article from which the
# data were obtained.
#
data_9017408
loop_
_publ_author_name
'Demichelis, R.'
'Raiteri, P.'
'Gale, J. D.'
'Dovesi, R.'
_publ_section_title
;
 A new structural model for disorder in vaterite from first-principles calculations
;
_journal_name_full               CrystEngComm
_journal_page_first              44
_journal_page_last               47
_journal_volume                  14
_journal_year                    2012
_chemical_compound_source        theoretical
_chemical_formula_sum            'C Ca O3'
_chemical_name_mineral           Vaterite
_space_group_IT_number           170
_space_group_name_Hall           'P 65'
_space_group_name_H-M_alt        'P 65'
_symmetry_space_group_name_H-M   'P 65'
_cell_angle_alpha                90
_cell_angle_beta                 90
_cell_angle_gamma                120
_cell_length_a                   7.1120
_cell_length_b                   7.1120
_cell_length_c                   25.4089
_cell_formula_units_Z            18
_cell_volume                     1113.012
_database_code_amcsd             0019869
_exptl_crystal_density_diffrn    2.688
_cod_data_source_file            inputs/fixed/downloads/14/14765.cif
_cod_data_source_block           14765
_cod_original_formula_sum        'Ca C O3'
_cod_database_code               9017408
loop_
_space_group_symop_operation_xyz
x,y,z
x-y,x,5/6+z
-y,x-y,2/3+z
-x,-y,1/2+z
-x+y,-x,1/3+z
y,-x+y,1/6+z
loop_
_atom_site_label
_atom_site_fract_x
_atom_site_fract_y
_atom_site_fract_z
Ca1 0.95661 0.97935 0.08650
Ca2 0.67921 0.31096 0.08050
Ca3 0.30019 0.62994 0.08153
C1 0.04111 0.35589 0.99496
C2 0.65885 0.61228 0.00485
C3 0.01935 0.31215 0.66700
O4 0.03599 0.14063 0.67262
O5 0.00532 0.36944 0.61897
O6 0.58087 0.59863 0.37438
O7 0.95631 0.25748 0.95143
O8 0.64138 0.66134 0.05336
O9 0.21600 0.54229 0.99401
O10 0.67527 0.44184 0.99694
O11 0.95776 0.27600 0.04054
O12 0.66170 0.72781 0.96587
loop_
_cod_related_entry_id
_cod_related_entry_database
_cod_related_entry_code
1 AMCSD 0019869

#------------------------------------------------------------------------------
#$Date: 2024-05-29 15:00:33 +0100 (Wed, 29 May 2024) $
#$Revision: 292100 $
#$URL: svn://www.crystallography.net/cod/cif/9/01/74/9017409.cif $
#------------------------------------------------------------------------------
#
# This file is available in the Crystallography Open Database (COD),
# http://www.crystallography.net/. The original data for this entry
# were provided the American Mineralogist Crystal Structure Database,
# http://rruff.geo.arizona.edu/AMS/amcsd.php
#
# The file may be used within the scientific community so long as
# proper attribution is given to the journal article from which the
# data were obtained.
#
data_9017409
loop_
_publ_author_name
'Demichelis, R.'
'Raiteri, P.'
'Gale, J. D.'
'Dovesi, R.'
_publ_section_title
;
 A new structural model for disorder in vaterite from first-principles calculations
;
_journal_name_full               CrystEngComm
_journal_page_first              44
_journal_page_last               47
_journal_volume                  14
_journal_year                    2012
_chemical_compound_source        theoretical
_chemical_formula_sum            'C Ca O3'
_chemical_name_mineral           Vaterite
_space_group_IT_number           154
_space_group_name_Hall           'P 32 2"'
_space_group_name_H-M_alt        'P 32 2 1'
_symmetry_space_group_name_H-M   'P 32 2 1'
_cell_angle_alpha                90
_cell_angle_beta                 90
_cell_angle_gamma                120
_cell_length_a                   7.1239
_cell_length_b                   7.1239
_cell_length_c                   25.3203
_cell_formula_units_Z            18
_cell_volume                     1112.846
_database_code_amcsd             0019870
_exptl_crystal_density_diffrn    2.688
_cod_data_source_file            inputs/fixed/downloads/14/14766.cif
_cod_data_source_block           14766
_cod_original_formula_sum        'Ca C O3'
_cod_database_code               9017409
loop_
_space_group_symop_operation_xyz
x,y,z
y,x,-z
-y,x-y,2/3+z
-x,-x+y,2/3-z
-x+y,-x,1/3+z
x-y,-y,1/3-z
loop_
_atom_site_label
_atom_site_fract_x
_atom_site_fract_y
_atom_site_fract_z
Ca1 0.98731 0.00884 0.25020
Ca2 0.66938 0.29692 0.25375
Ca3 0.30357 0.63281 0.24648
C1 0.03394 0.36633 0.16169
C2 0.94957 0.62773 0.66089
C3 0.00000 0.30149 0.83333
C4 0.00000 0.69852 0.33333
O5 0.00000 0.11971 0.83333
O6 0.00000 0.87944 0.33333
O7 0.98084 0.37860 0.78859
O8 0.99342 0.60886 0.28838
O9 0.92793 0.26758 0.12000
O10 0.99651 0.67669 0.61111
O11 0.21701 0.54412 0.15803
O12 0.77434 0.44983 0.67169
O13 0.96475 0.29501 0.20912
O14 0.07260 0.75107 0.69768
loop_
_cod_related_entry_id
_cod_related_entry_database
_cod_related_entry_code
1 AMCSD 0019870

#------------------------------------------------------------------------------
#$Date: 2024-05-29 15:00:33 +0100 (Wed, 29 May 2024) $
#$Revision: 292100 $
#$URL: svn://www.crystallography.net/cod/cif/9/01/74/9017410.cif $
#------------------------------------------------------------------------------
#
# This file is available in the Crystallography Open Database (COD),
# http://www.crystallography.net/. The original data for this entry
# were provided the American Mineralogist Crystal Structure Database,
# http://rruff.geo.arizona.edu/AMS/amcsd.php
#
# The file may be used within the scientific community so long as
# proper attribution is given to the journal article from which the
# data were obtained.
#
data_9017410
loop_
_publ_author_name
'Demichelis, R.'
'Raiteri, P.'
'Gale, J. D.'
'Dovesi, R.'
_publ_section_title
;
 A new structural model for disorder in vaterite from first-principles calculations
;
_journal_name_full               CrystEngComm
_journal_page_first              44
_journal_page_last               47
_journal_volume                  14
_journal_year                    2012
_chemical_compound_source        theoretical
_chemical_formula_sum            'C Ca O3'
_chemical_name_mineral           Vaterite
_space_group_IT_number           40
_space_group_name_Hall           'A 2 -2a'
_space_group_name_H-M_alt        'A m a 2'
_symmetry_space_group_name_H-M   'A m a 2'
_cell_angle_alpha                90
_cell_angle_beta                 90
_cell_angle_gamma                90
_cell_length_a                   8.4905
_cell_length_b                   6.3905
_cell_length_c                   4.5026
_cell_formula_units_Z            4
_cell_volume                     244.305
_database_code_amcsd             0019871
_exptl_crystal_density_diffrn    2.721
_cod_data_source_file            inputs/fixed/downloads/14/14767.cif
_cod_data_source_block           14767
_cod_original_formula_sum        'Ca C O3'
_cod_database_code               9017410
loop_
_space_group_symop_operation_xyz
x,y,z
x,1/2+y,1/2+z
1/2+x,-y,z
1/2+x,1/2-y,1/2+z
1/2-x,y,z
1/2-x,1/2+y,1/2+z
-x,-y,z
-x,1/2-y,1/2+z
loop_
_atom_site_label
_atom_site_fract_x
_atom_site_fract_y
_atom_site_fract_z
Ca 0.50000 0.00000 0.50868
C 0.25000 0.14432 0.94400
O1 0.38423 0.16589 0.07718
O2 0.25000 0.10559 0.66336
loop_
_cod_related_entry_id
_cod_related_entry_database
_cod_related_entry_code
1 AMCSD 0019871

